Circuit: * D:\Users\Daniel\Dropbox\Documents\Circuits\amplifier-mosfet.asc

Direct Newton iteration for .op point succeeded.

Date: Sat Feb 05 23:04:51 2022
Total elapsed time: 0.038 seconds.

tnom = 27
temp = 27
method = modified trap
totiter = 2090
traniter = 2084
tranpoints = 1042
accept = 1042
rejected = 0
matrix size = 12
fillins = 0
solver = Normal
Matrix Compiler1: 660 bytes object code size  0.1/0.1/[0.1]
Matrix Compiler2: 908 bytes object code size  0.1/0.1/[0.1]

