Circuit: * D:\Users\Daniel\Dropbox\Documents\Circuits\amplifier.asc

Direct Newton iteration for .op point succeeded.

Date: Sat Feb 05 21:08:26 2022
Total elapsed time: 0.038 seconds.

tnom = 27
temp = 27
method = modified trap
totiter = 2092
traniter = 2086
tranpoints = 1042
accept = 1042
rejected = 0
matrix size = 12
fillins = 0
solver = Normal
Matrix Compiler1: 660 bytes object code size  0.1/0.1/[0.1]
Matrix Compiler2: off  [0.1]/0.1/0.1

