Circuit: * D:\Daniel\Documents\Projects\challenges\LTSpice_circuits\amplifier.asc

Direct Newton iteration for .op point succeeded.

Date: Sun May 01 11:27:00 2022
Total elapsed time: 0.056 seconds.

tnom = 27
temp = 27
method = modified trap
totiter = 2103
traniter = 2095
tranpoints = 1045
accept = 1045
rejected = 0
matrix size = 37
fillins = 7
solver = Normal
Matrix Compiler1: 3.01 KB object code size  0.8/0.5/[0.3]
Matrix Compiler2: 3.55 KB object code size  0.4/0.6/[0.4]

