Circuit: * D:\Users\Daniel\Dropbox\Documents\Circuits\amplifier-v2.asc

Direct Newton iteration for .op point succeeded.

Date: Sat Feb 05 22:21:32 2022
Total elapsed time: 0.042 seconds.

tnom = 27
temp = 27
method = modified trap
totiter = 2091
traniter = 2085
tranpoints = 1042
accept = 1042
rejected = 0
matrix size = 12
fillins = 0
solver = Normal
Matrix Compiler1: 660 bytes object code size  0.2/0.2/[0.1]
Matrix Compiler2: 908 bytes object code size  0.1/0.2/[0.1]

