Circuit: * Z:\n\dev\challenges\LTSpice_circuits\blinkers.asc

Direct Newton iteration for .op point succeeded.
Heightened Def Con from 0.163319 to 0.163319

Date: Sat Aug 10 20:00:00 2024
Total elapsed time: 0.142 seconds.

tnom = 27
temp = 27
method = modified trap
totiter = 9828
traniter = 9818
tranpoints = 2856
accept = 2404
rejected = 453
matrix size = 19
fillins = 8
solver = Normal
Matrix Compiler1: 1.22 KB object code size  0.3/0.2/[0.1]
Matrix Compiler2: 1.38 KB object code size  0.2/0.3/[0.2]

