Circuit: * D:\Users\Daniel\Dropbox\Documents\Circuits\DC-DC.asc

