Circuit: * D:\Users\Daniel\Dropbox\Documents\Circuits\divider.asc

Direct Newton iteration for .op point succeeded.

Date: Sat Jan 29 19:31:18 2022
Total elapsed time: 0.034 seconds.

tnom = 27
temp = 27
method = modified trap
totiter = 2085
traniter = 2082
tranpoints = 1042
accept = 1042
rejected = 0
matrix size = 3
fillins = 0
solver = Normal
Matrix Compiler1:       3 opcodes  0.0/[0.0]/0.0
Matrix Compiler2: 175 bytes object code size  0.0/0.0/[0.0]

