LTspice 24.1.7 for Windows
Circuit: Z:\n\dev\challenges\LTSpice_circuits\Draft5.net
Start Time: Sat Aug  2 18:55:12 2025
solver = Normal
Maximum thread count: 8
tnom = 27
temp = 27
method = trap
Direct Newton iteration for .op point succeeded.
Total elapsed time: 0.118 seconds.

Files loaded:
Z:\n\dev\challenges\LTSpice_circuits\Draft5.net
C:\users\katzda\AppData\Local\LTspice\lib\cmp\standard.mos

