Circuit: * D:\Users\Daniel\Dropbox\Documents\Circuits\Draft3.asc

WARNING: Less than two connections to node N002.  This node is used by R1.
Direct Newton iteration for .op point succeeded.

Date: Sun Jan 30 23:13:46 2022
Total elapsed time: 0.050 seconds.

tnom = 27
temp = 27
method = modified trap
totiter = 2085
traniter = 2082
tranpoints = 1042
accept = 1042
rejected = 0
matrix size = 3
fillins = 0
solver = Normal
Matrix Compiler1: off  [0.0]/0.0/0.0
Matrix Compiler2: 163 bytes object code size  0.0/0.0/[0.0]

