Circuit: * Z:\n\dev\challenges\LTSpice_circuits\Draft5.asc

Warning: Multiple definitions of model "2scr375p" Type: BJT
Warning: Multiple definitions of model "bc857b" Type: BJT
Warning: Multiple definitions of model "bc847c" Type: BJT
Warning: Multiple definitions of model "bc847b" Type: BJT
Direct Newton iteration for .op point succeeded.

Date: Sun Oct 06 14:17:39 2024
Total elapsed time: 0.074 seconds.

tnom = 27
temp = 27
method = modified trap
totiter = 1444
traniter = 1434
tranpoints = 442
accept = 373
rejected = 69
matrix size = 5
fillins = 0
solver = Normal
Matrix Compiler1:       9 opcodes  0.1/[0.1]/0.1
Matrix Compiler2: off  [0.1]/0.1/0.2

