Circuit: * Z:\n\dev\challenges\LTSpice_circuits\Draft6.asc

Warning: Multiple definitions of model "2scr375p" Type: BJT
Warning: Multiple definitions of model "bc857b" Type: BJT
Warning: Multiple definitions of model "bc847c" Type: BJT
Warning: Multiple definitions of model "bc847b" Type: BJT
Direct Newton iteration failed to find .op point.  (Use ".option noopiter" to skip.)
Starting Gmin stepping
Gmin = 10
Gmin = 1.07374
Gmin = 0.115292
Gmin = 0.0123794
Gmin = 0.00132923
Gmin = 0.000142725
Gmin = 1.5325e-005
Gmin = 1.6455e-006
Gmin = 1.76685e-007
Gmin = 1.89714e-008
Gmin = 2.03704e-009
Gmin = 2.18725e-010
Gmin = 2.34854e-011
Gmin = 2.52173e-012
Gmin = 2.70769e-013
Gmin = 0
Gmin stepping succeeded in finding the operating point.

Changing Tseed to 1e-008
Changing Tseed to 1e-010
Heightened Def Con from 2.00019e-010 to 3.25019e-010
Heightened Def Con from 3.20998e-009 to 4.20998e-009
Heightened Def Con from 1.73081e-007 to 1.74081e-007
Heightened Def Con from 0.000154258 to 0.000154259
Heightened Def Con from 0.00015447 to 0.000154471
Heightened Def Con from 0.000154471 to 0.000154472
Heightened Def Con from 0.00220147 to 0.00220147
Heightened Def Con from 0.00220147 to 0.00220147
Heightened Def Con from 0.00220159 to 0.00220159
Heightened Def Con from 0.00220275 to 0.00220275
Heightened Def Con from 0.00220275 to 0.00220275
Heightened Def Con from 0.00220275 to 0.00220276
Heightened Def Con from 0.00220277 to 0.00220277
Heightened Def Con from 0.00220277 to 0.00220278
Heightened Def Con from 0.0022958 to 0.0022958
Heightened Def Con from 0.0022958 to 0.0022958
Heightened Def Con from 0.00229586 to 0.00229586
Heightened Def Con from 0.0516681 to 0.0516681
Heightened Def Con from 0.0516681 to 0.0516681
Heightened Def Con from 0.0516681 to 0.0516681
Heightened Def Con from 0.0516681 to 0.0516681
Heightened Def Con from 0.0516681 to 0.0516681
Heightened Def Con from 0.0516681 to 0.0516681
Heightened Def Con from 0.0516681 to 0.0516681
Heightened Def Con from 0.0516681 to 0.0516681
Heightened Def Con from 0.0516681 to 0.0516681
Heightened Def Con from 0.0516681 to 0.0516681
Heightened Def Con from 0.0516681 to 0.0516681
Heightened Def Con from 0.0516681 to 0.0516681
Heightened Def Con from 0.0516681 to 0.0516681
Heightened Def Con from 0.0516681 to 0.0516681
Heightened Def Con from 0.0516681 to 0.0516681
Heightened Def Con from 0.0516681 to 0.0516681
Heightened Def Con from 0.0516681 to 0.0516681
Heightened Def Con from 0.0516681 to 0.0516681
Heightened Def Con from 0.0516681 to 0.0516681
Heightened Def Con from 0.0516681 to 0.0516681
Heightened Def Con from 0.0516681 to 0.0516681
Heightened Def Con from 0.0516681 to 0.0516681
Heightened Def Con from 0.0516681 to 0.0516681
Heightened Def Con from 0.0516681 to 0.0516681
Heightened Def Con from 0.0516681 to 0.0516681
Heightened Def Con from 0.0516681 to 0.0516681
Heightened Def Con from 0.0516681 to 0.0516681
Heightened Def Con from 0.0516681 to 0.0516681
Heightened Def Con from 0.0516681 to 0.0516681
Heightened Def Con from 0.0516681 to 0.0516681
Heightened Def Con from 0.0516681 to 0.0516681
Heightened Def Con from 0.0516681 to 0.0516681
Heightened Def Con from 0.0516681 to 0.0516681
Heightened Def Con from 0.0516681 to 0.0516681
Heightened Def Con from 0.0516681 to 0.0516681
Heightened Def Con from 0.0516681 to 0.0516681
Heightened Def Con from 0.0516681 to 0.0516681
Heightened Def Con from 0.0516681 to 0.0516681
Heightened Def Con from 0.0516681 to 0.0516682
Heightened Def Con from 0.0516682 to 0.0516682
Heightened Def Con from 0.0516682 to 0.0516682
Heightened Def Con from 0.0516682 to 0.0516682
Heightened Def Con from 0.0516682 to 0.0516682
Heightened Def Con from 0.0516682 to 0.0516682
Heightened Def Con from 0.0516682 to 0.0516682
Heightened Def Con from 0.0516682 to 0.0516682
Heightened Def Con from 0.0516682 to 0.0516682
Heightened Def Con from 0.0516682 to 0.0516682
Heightened Def Con from 0.0516682 to 0.0516682
Heightened Def Con from 0.0516682 to 0.0516682
Heightened Def Con from 0.0516682 to 0.0516682
Heightened Def Con from 0.0516682 to 0.0516682
Heightened Def Con from 0.0516682 to 0.0516682
Heightened Def Con from 0.0516682 to 0.0516682
Heightened Def Con from 0.0516682 to 0.0516682
Heightened Def Con from 0.0516682 to 0.0516682
Heightened Def Con from 0.0516682 to 0.0516682
Heightened Def Con from 0.0516682 to 0.0516682
Heightened Def Con from 0.0516682 to 0.0516682
Heightened Def Con from 0.0516682 to 0.0516682
Heightened Def Con from 0.0516682 to 0.0516682
Heightened Def Con from 0.0516682 to 0.0516682
Heightened Def Con from 0.0516682 to 0.0516682
Heightened Def Con from 0.0516682 to 0.0516682
Heightened Def Con from 0.0516682 to 0.0516682
Heightened Def Con from 0.0516682 to 0.0516682
Heightened Def Con from 0.0516682 to 0.0516682
Heightened Def Con from 0.0516682 to 0.0516682
Heightened Def Con from 0.0516682 to 0.0516682
Heightened Def Con from 0.0516682 to 0.0516682
Heightened Def Con from 0.0516682 to 0.0516682
Heightened Def Con from 0.0516682 to 0.0516682
Heightened Def Con from 0.0516682 to 0.0516682
Heightened Def Con from 0.0516682 to 0.0516682
Heightened Def Con from 0.0516682 to 0.0516682
Heightened Def Con from 0.0516682 to 0.0516682
Heightened Def Con from 0.0516682 to 0.0516682
Heightened Def Con from 0.0516682 to 0.0516682
Heightened Def Con from 0.0516683 to 0.0516683
Heightened Def Con from 0.0516683 to 0.0516683
Heightened Def Con from 0.0516683 to 0.0516683
Heightened Def Con from 0.0516683 to 0.0516683
Heightened Def Con from 0.0516683 to 0.0516683
Heightened Def Con from 0.0516683 to 0.0516683
Heightened Def Con from 0.0516683 to 0.0516683
Heightened Def Con from 0.0516683 to 0.0516683
Heightened Def Con from 0.0516683 to 0.0516683
Heightened Def Con from 0.0516683 to 0.0516683
Heightened Def Con from 0.0516683 to 0.0516683
Heightened Def Con from 0.0516683 to 0.0516683
Heightened Def Con from 0.0516683 to 0.0516683
Heightened Def Con from 0.0516683 to 0.0516683
Heightened Def Con from 0.0516683 to 0.0516683
Heightened Def Con from 0.0516683 to 0.0516683
Heightened Def Con from 0.0516683 to 0.0516683
Heightened Def Con from 0.0516683 to 0.0516683
Heightened Def Con from 0.0516683 to 0.0516683
Heightened Def Con from 0.0516683 to 0.0516683
Heightened Def Con from 0.0516683 to 0.0516683
Heightened Def Con from 0.0516683 to 0.0516683
Heightened Def Con from 0.0516683 to 0.0516683
Heightened Def Con from 0.0516683 to 0.0516683
Heightened Def Con from 0.0516683 to 0.0516683
Heightened Def Con from 0.0516683 to 0.0516683
Heightened Def Con from 0.0516683 to 0.0516683
Heightened Def Con from 0.0516684 to 0.0516684
Heightened Def Con from 0.0516684 to 0.0516684
Heightened Def Con from 0.0516684 to 0.0516684
Heightened Def Con from 0.0516684 to 0.0516684
Heightened Def Con from 0.0516684 to 0.0516684
Heightened Def Con from 0.0516684 to 0.0516684
Heightened Def Con from 0.0516684 to 0.0516684
Heightened Def Con from 0.0516684 to 0.0516684
Heightened Def Con from 0.0516684 to 0.0516684
Heightened Def Con from 0.0516684 to 0.0516684
Heightened Def Con from 0.0516684 to 0.0516684
Heightened Def Con from 0.0516684 to 0.0516684
Heightened Def Con from 0.0516684 to 0.0516684
Heightened Def Con from 0.0516684 to 0.0516684
Heightened Def Con from 0.0516684 to 0.0516684
Heightened Def Con from 0.0516685 to 0.0516685
Heightened Def Con from 0.0516685 to 0.0516685
Heightened Def Con from 0.0516685 to 0.0516685
Heightened Def Con from 0.0516685 to 0.0516685
Heightened Def Con from 0.0516685 to 0.0516685
Heightened Def Con from 0.0516685 to 0.0516685
Heightened Def Con from 0.0516685 to 0.0516685
Heightened Def Con from 0.0516685 to 0.0516685
Heightened Def Con from 0.0516685 to 0.0516685
Heightened Def Con from 0.0516685 to 0.0516685
Heightened Def Con from 0.0516685 to 0.0516685
Heightened Def Con from 0.0516685 to 0.0516685
Heightened Def Con from 0.0516685 to 0.0516685
Heightened Def Con from 0.0516685 to 0.0516685
Heightened Def Con from 0.0516685 to 0.0516685
Heightened Def Con from 0.0516685 to 0.0516685
Heightened Def Con from 0.0516685 to 0.0516685
Heightened Def Con from 0.0516685 to 0.0516685
Heightened Def Con from 0.0516685 to 0.0516685
Heightened Def Con from 0.0516685 to 0.0516685
Heightened Def Con from 0.0516685 to 0.0516685
Heightened Def Con from 0.0516685 to 0.0516685
Heightened Def Con from 0.0516685 to 0.0516685
Heightened Def Con from 0.0516685 to 0.0516685
Heightened Def Con from 0.0516685 to 0.0516685
Heightened Def Con from 0.0516685 to 0.0516685
Heightened Def Con from 0.0516685 to 0.0516685
Heightened Def Con from 0.0516685 to 0.0516685
Heightened Def Con from 0.0516685 to 0.0516685
Heightened Def Con from 0.0516685 to 0.0516685
Heightened Def Con from 0.0516685 to 0.0516685
Heightened Def Con from 0.0516685 to 0.0516685
Heightened Def Con from 0.0516686 to 0.0516686
Heightened Def Con from 0.0516686 to 0.0516686
Heightened Def Con from 0.0516686 to 0.0516686
Heightened Def Con from 0.0516686 to 0.0516686
Heightened Def Con from 0.0516686 to 0.0516686
Heightened Def Con from 0.0516686 to 0.0516686
Heightened Def Con from 0.0516686 to 0.0516686
Heightened Def Con from 0.0516686 to 0.0516686
Heightened Def Con from 0.0516686 to 0.0516686
Heightened Def Con from 0.0516686 to 0.0516686
Heightened Def Con from 0.0516686 to 0.0516686
Heightened Def Con from 0.0516686 to 0.0516686
Heightened Def Con from 0.0516686 to 0.0516686
Heightened Def Con from 0.0516686 to 0.0516686
Heightened Def Con from 0.0516686 to 0.0516686
Heightened Def Con from 0.0516686 to 0.0516686
Heightened Def Con from 0.0516686 to 0.0516686
Heightened Def Con from 0.0516686 to 0.0516686
Heightened Def Con from 0.0516686 to 0.0516686
Heightened Def Con from 0.0516686 to 0.0516686
Heightened Def Con from 0.0516686 to 0.0516686
Heightened Def Con from 0.0516686 to 0.0516686
Heightened Def Con from 0.0516686 to 0.0516686
Heightened Def Con from 0.0516686 to 0.0516686
Heightened Def Con from 0.0516686 to 0.0516686
Heightened Def Con from 0.0516686 to 0.0516686
Heightened Def Con from 0.0516686 to 0.0516686
Heightened Def Con from 0.0516687 to 0.0516687
Heightened Def Con from 0.0516687 to 0.0516687
Heightened Def Con from 0.0516687 to 0.0516687
Heightened Def Con from 0.0516687 to 0.0516687
Heightened Def Con from 0.0516687 to 0.0516687
Heightened Def Con from 0.0516687 to 0.0516687
Heightened Def Con from 0.0516687 to 0.0516687
Heightened Def Con from 0.0516687 to 0.0516687
Heightened Def Con from 0.0516687 to 0.0516687
Heightened Def Con from 0.0516687 to 0.0516687
Heightened Def Con from 0.0516687 to 0.0516687
Heightened Def Con from 0.0516687 to 0.0516687
Heightened Def Con from 0.0516687 to 0.0516687
Heightened Def Con from 0.0516687 to 0.0516687
Heightened Def Con from 0.0516687 to 0.0516687
Heightened Def Con from 0.0516687 to 0.0516687
Heightened Def Con from 0.0516687 to 0.0516687
Heightened Def Con from 0.0516687 to 0.0516687
Heightened Def Con from 0.0516687 to 0.0516687
Heightened Def Con from 0.0516687 to 0.0516687
Heightened Def Con from 0.0516687 to 0.0516687
Heightened Def Con from 0.0516687 to 0.0516687
Heightened Def Con from 0.0516687 to 0.0516687
Heightened Def Con from 0.0516687 to 0.0516687
Heightened Def Con from 0.0516687 to 0.0516687
Heightened Def Con from 0.0516687 to 0.0516687
Heightened Def Con from 0.0516687 to 0.0516687
Heightened Def Con from 0.0516687 to 0.0516687
Heightened Def Con from 0.0516687 to 0.0516687
Heightened Def Con from 0.0516687 to 0.0516687
Heightened Def Con from 0.0516687 to 0.0516687
Heightened Def Con from 0.0516687 to 0.0516687
Heightened Def Con from 0.0516687 to 0.0516687
Heightened Def Con from 0.0516687 to 0.0516687
Heightened Def Con from 0.0516687 to 0.0516687
Heightened Def Con from 0.0516687 to 0.0516687
Heightened Def Con from 0.0516687 to 0.0516687
Heightened Def Con from 0.0516687 to 0.0516687
Heightened Def Con from 0.0516687 to 0.0516687
Heightened Def Con from 0.0516687 to 0.0516687
Heightened Def Con from 0.0516687 to 0.0516687
Heightened Def Con from 0.0516687 to 0.0516687
Heightened Def Con from 0.0516687 to 0.0516687
Heightened Def Con from 0.0516687 to 0.0516687
Heightened Def Con from 0.0516688 to 0.0516688
Heightened Def Con from 0.0516689 to 0.0516689
Heightened Def Con from 0.0516689 to 0.0516689
Heightened Def Con from 0.0516689 to 0.0516689
Heightened Def Con from 0.0516689 to 0.0516689
Heightened Def Con from 0.0516689 to 0.0516689
Heightened Def Con from 0.0516689 to 0.0516689
Heightened Def Con from 0.0516689 to 0.0516689
Heightened Def Con from 0.0516689 to 0.0516689
Heightened Def Con from 0.0516689 to 0.0516689
Heightened Def Con from 0.0516689 to 0.0516689
Heightened Def Con from 0.0516689 to 0.0516689
Heightened Def Con from 0.0516689 to 0.0516689
Heightened Def Con from 0.0516689 to 0.0516689
Heightened Def Con from 0.0516689 to 0.0516689
Heightened Def Con from 0.0516689 to 0.0516689
Heightened Def Con from 0.0516689 to 0.0516689
Heightened Def Con from 0.0516689 to 0.0516689
Heightened Def Con from 0.0516689 to 0.0516689
Heightened Def Con from 0.0516689 to 0.0516689
Heightened Def Con from 0.0516689 to 0.0516689
Heightened Def Con from 0.0516689 to 0.0516689
Heightened Def Con from 0.0516689 to 0.0516689
Heightened Def Con from 0.0516689 to 0.0516689
Heightened Def Con from 0.0516689 to 0.0516689
Heightened Def Con from 0.0516689 to 0.0516689
Heightened Def Con from 0.0516689 to 0.0516689
Heightened Def Con from 0.0516689 to 0.0516689
Heightened Def Con from 0.0516689 to 0.0516689
Heightened Def Con from 0.0516689 to 0.0516689
Heightened Def Con from 0.0516689 to 0.0516689
Heightened Def Con from 0.0516689 to 0.0516689
Heightened Def Con from 0.0516689 to 0.051669
Heightened Def Con from 0.051669 to 0.051669
Heightened Def Con from 0.051669 to 0.051669
Heightened Def Con from 0.051669 to 0.051669
Heightened Def Con from 0.051669 to 0.051669
Heightened Def Con from 0.051669 to 0.051669
Heightened Def Con from 0.051669 to 0.051669
Heightened Def Con from 0.051669 to 0.051669
Heightened Def Con from 0.051669 to 0.051669
Heightened Def Con from 0.0516714 to 0.0516714
Heightened Def Con from 0.0516714 to 0.0516714
Heightened Def Con from 0.0516714 to 0.0516714
Heightened Def Con from 0.0516714 to 0.0516714
Heightened Def Con from 0.0516714 to 0.0516714
Heightened Def Con from 0.0516714 to 0.0516714
Heightened Def Con from 0.0516715 to 0.0516715
Heightened Def Con from 0.0516715 to 0.0516715
Heightened Def Con from 0.0516715 to 0.0516715
Heightened Def Con from 0.0516715 to 0.0516715
Heightened Def Con from 0.0516715 to 0.0516715
Heightened Def Con from 0.0516715 to 0.0516715
Heightened Def Con from 0.0516715 to 0.0516715
Heightened Def Con from 0.0516715 to 0.0516715
Heightened Def Con from 0.0516715 to 0.0516715
Heightened Def Con from 0.0516715 to 0.0516715
Heightened Def Con from 0.0516715 to 0.0516715
Heightened Def Con from 0.0516715 to 0.0516715
Heightened Def Con from 0.0516715 to 0.0516715
Heightened Def Con from 0.0516715 to 0.0516715
Heightened Def Con from 0.0516715 to 0.0516715
Heightened Def Con from 0.0516715 to 0.0516715
Heightened Def Con from 0.0516716 to 0.0516716
Heightened Def Con from 0.0516716 to 0.0516716
Heightened Def Con from 0.0516716 to 0.0516716
Heightened Def Con from 0.0516716 to 0.0516716
Heightened Def Con from 0.0516716 to 0.0516716
Heightened Def Con from 0.0516716 to 0.0516716
Heightened Def Con from 0.0516716 to 0.0516716
Heightened Def Con from 0.0516716 to 0.0516716
Heightened Def Con from 0.0516716 to 0.0516716
Heightened Def Con from 0.0516716 to 0.0516716
Heightened Def Con from 0.0516716 to 0.0516716
Heightened Def Con from 0.0516716 to 0.0516716
Heightened Def Con from 0.0516716 to 0.0516716
Heightened Def Con from 0.0516716 to 0.0516716
Heightened Def Con from 0.0516716 to 0.0516716
Heightened Def Con from 0.0516716 to 0.0516716
Heightened Def Con from 0.0516716 to 0.0516716
Heightened Def Con from 0.0516716 to 0.0516716
Heightened Def Con from 0.0516716 to 0.0516716
Heightened Def Con from 0.0516716 to 0.0516716
Heightened Def Con from 0.0516716 to 0.0516716
Heightened Def Con from 0.0516716 to 0.0516716
Heightened Def Con from 0.0516716 to 0.0516716
Heightened Def Con from 0.0516716 to 0.0516716
Heightened Def Con from 0.0516716 to 0.0516716
Heightened Def Con from 0.0516716 to 0.0516716
Heightened Def Con from 0.0516716 to 0.0516716
Heightened Def Con from 0.0516716 to 0.0516716
Heightened Def Con from 0.0516716 to 0.0516716
Heightened Def Con from 0.0516716 to 0.0516716
Heightened Def Con from 0.0516716 to 0.0516717
Heightened Def Con from 0.0516717 to 0.0516717
Heightened Def Con from 0.0516717 to 0.0516717
Heightened Def Con from 0.0516717 to 0.0516717
Heightened Def Con from 0.0516717 to 0.0516717
Heightened Def Con from 0.0516717 to 0.0516717
Heightened Def Con from 0.0516717 to 0.0516717
Heightened Def Con from 0.0516717 to 0.0516717
Heightened Def Con from 0.0516717 to 0.0516717
Heightened Def Con from 0.0516717 to 0.0516717
Heightened Def Con from 0.0516717 to 0.0516717
Heightened Def Con from 0.0516717 to 0.0516717
Heightened Def Con from 0.0516717 to 0.0516717
Heightened Def Con from 0.0516717 to 0.0516717
Heightened Def Con from 0.0516717 to 0.0516717
Heightened Def Con from 0.0516717 to 0.0516717
Heightened Def Con from 0.0516717 to 0.0516717
Heightened Def Con from 0.0516717 to 0.0516717
Heightened Def Con from 0.0516717 to 0.0516717
Heightened Def Con from 0.0516717 to 0.0516717
Heightened Def Con from 0.0516717 to 0.0516717
Heightened Def Con from 0.0516717 to 0.0516717
Heightened Def Con from 0.0516717 to 0.0516717
Heightened Def Con from 0.0516717 to 0.0516717
Heightened Def Con from 0.0516717 to 0.0516717
Heightened Def Con from 0.0516717 to 0.0516717
Heightened Def Con from 0.0516717 to 0.0516717
Heightened Def Con from 0.0516717 to 0.0516717
Heightened Def Con from 0.0516717 to 0.0516717
Heightened Def Con from 0.0516717 to 0.0516717
Heightened Def Con from 0.0516717 to 0.0516717
Heightened Def Con from 0.0516717 to 0.0516717
Heightened Def Con from 0.0516717 to 0.0516717
Heightened Def Con from 0.0516717 to 0.0516717
Heightened Def Con from 0.0516717 to 0.0516717
Heightened Def Con from 0.0516717 to 0.0516717
Heightened Def Con from 0.0516717 to 0.0516718
Heightened Def Con from 0.0516718 to 0.0516718
Heightened Def Con from 0.0516719 to 0.0516719
Heightened Def Con from 0.0516719 to 0.0516719
Heightened Def Con from 0.0516719 to 0.0516719
Heightened Def Con from 0.0516719 to 0.0516719
Heightened Def Con from 0.0516719 to 0.0516719
Heightened Def Con from 0.0516719 to 0.0516719
Heightened Def Con from 0.0516719 to 0.0516719
Heightened Def Con from 0.0516719 to 0.0516719
Heightened Def Con from 0.0516719 to 0.0516719
Heightened Def Con from 0.0516719 to 0.0516719
Heightened Def Con from 0.0516719 to 0.0516719
Heightened Def Con from 0.0516719 to 0.0516719
Heightened Def Con from 0.0516719 to 0.0516719
Heightened Def Con from 0.0516719 to 0.0516719
Heightened Def Con from 0.0516719 to 0.0516719
Heightened Def Con from 0.0516719 to 0.0516719
Heightened Def Con from 0.0516719 to 0.0516719
Heightened Def Con from 0.0516719 to 0.0516719
Heightened Def Con from 0.0516719 to 0.0516719
Heightened Def Con from 0.0516719 to 0.0516719
Heightened Def Con from 0.0516719 to 0.0516719
Heightened Def Con from 0.0516719 to 0.0516719
Heightened Def Con from 0.0516719 to 0.0516719
Heightened Def Con from 0.0516719 to 0.0516719
Heightened Def Con from 0.0516719 to 0.0516719
Heightened Def Con from 0.0516719 to 0.0516719
Heightened Def Con from 0.0516719 to 0.0516719
Heightened Def Con from 0.0516719 to 0.0516719
Heightened Def Con from 0.0516719 to 0.0516719
Heightened Def Con from 0.0516719 to 0.0516719
Heightened Def Con from 0.051672 to 0.051672
Heightened Def Con from 0.051672 to 0.051672
Heightened Def Con from 0.051672 to 0.051672
Heightened Def Con from 0.051672 to 0.051672
Heightened Def Con from 0.051672 to 0.051672
Heightened Def Con from 0.051672 to 0.051672
Heightened Def Con from 0.051672 to 0.051672
Heightened Def Con from 0.051672 to 0.051672
Heightened Def Con from 0.051672 to 0.051672
Heightened Def Con from 0.051672 to 0.051672
Heightened Def Con from 0.051672 to 0.051672
Heightened Def Con from 0.0516721 to 0.0516721
Heightened Def Con from 0.0516721 to 0.0516721
Heightened Def Con from 0.0516721 to 0.0516721
Heightened Def Con from 0.0516721 to 0.0516721
Heightened Def Con from 0.0516721 to 0.0516721
Heightened Def Con from 0.0516721 to 0.0516721
Heightened Def Con from 0.0516721 to 0.0516721
Heightened Def Con from 0.0516721 to 0.0516721
Heightened Def Con from 0.0516721 to 0.0516721
Heightened Def Con from 0.0516722 to 0.0516722
Heightened Def Con from 0.0516722 to 0.0516722
Heightened Def Con from 0.0516722 to 0.0516722
Heightened Def Con from 0.0516722 to 0.0516722
Heightened Def Con from 0.0516722 to 0.0516722
Heightened Def Con from 0.0516722 to 0.0516722
Heightened Def Con from 0.0516722 to 0.0516722
Heightened Def Con from 0.0516722 to 0.0516722
Heightened Def Con from 0.0516722 to 0.0516722
Heightened Def Con from 0.0516722 to 0.0516722
Heightened Def Con from 0.0516722 to 0.0516722
Heightened Def Con from 0.0516722 to 0.0516722
Heightened Def Con from 0.0516722 to 0.0516722
Heightened Def Con from 0.0516722 to 0.0516722
Heightened Def Con from 0.0516722 to 0.0516722
Heightened Def Con from 0.0516722 to 0.0516722
Heightened Def Con from 0.0516722 to 0.0516722
Heightened Def Con from 0.0516722 to 0.0516722
Heightened Def Con from 0.0516722 to 0.0516722
Heightened Def Con from 0.0516722 to 0.0516722
Heightened Def Con from 0.0516722 to 0.0516722
Heightened Def Con from 0.0516722 to 0.0516722
Heightened Def Con from 0.0516722 to 0.0516722
Heightened Def Con from 0.0516722 to 0.0516722
Heightened Def Con from 0.0516722 to 0.0516722
Heightened Def Con from 0.0516726 to 0.0516726
Heightened Def Con from 0.0516727 to 0.0516727
Heightened Def Con from 0.0516727 to 0.0516727
Heightened Def Con from 0.0516727 to 0.0516727
Heightened Def Con from 0.0516727 to 0.0516727
Heightened Def Con from 0.0516727 to 0.0516727
Heightened Def Con from 0.0516727 to 0.0516727
Heightened Def Con from 0.0516727 to 0.0516727
Heightened Def Con from 0.0516727 to 0.0516727
Heightened Def Con from 0.0516727 to 0.0516727
Heightened Def Con from 0.0516727 to 0.0516727
Heightened Def Con from 0.0516727 to 0.0516727
Heightened Def Con from 0.0516727 to 0.0516727
Heightened Def Con from 0.0516727 to 0.0516727
Heightened Def Con from 0.0516727 to 0.0516727
Heightened Def Con from 0.0516727 to 0.0516727
Heightened Def Con from 0.0516727 to 0.0516727
Heightened Def Con from 0.0516727 to 0.0516727
Heightened Def Con from 0.0516727 to 0.0516727
Heightened Def Con from 0.0516727 to 0.0516727
Heightened Def Con from 0.0516727 to 0.0516727
Heightened Def Con from 0.0516727 to 0.0516727
Heightened Def Con from 0.0516727 to 0.0516727
Heightened Def Con from 0.0516727 to 0.0516727
Heightened Def Con from 0.0516727 to 0.0516727
Heightened Def Con from 0.0516727 to 0.0516727
Heightened Def Con from 0.0516727 to 0.0516727
Heightened Def Con from 0.0516727 to 0.0516727
Heightened Def Con from 0.0516727 to 0.0516728
Heightened Def Con from 0.0516728 to 0.0516728
Heightened Def Con from 0.0516728 to 0.0516728
Heightened Def Con from 0.0516728 to 0.0516728
Heightened Def Con from 0.0516728 to 0.0516728
Heightened Def Con from 0.0516728 to 0.0516728
Heightened Def Con from 0.0516728 to 0.0516728
Heightened Def Con from 0.0516728 to 0.0516728
Heightened Def Con from 0.0516728 to 0.0516728
Heightened Def Con from 0.0516728 to 0.0516728
Heightened Def Con from 0.0516728 to 0.0516728
Heightened Def Con from 0.0516728 to 0.0516728
Heightened Def Con from 0.0516728 to 0.0516728
Heightened Def Con from 0.0516728 to 0.0516728
Heightened Def Con from 0.0516728 to 0.0516728
Heightened Def Con from 0.0516728 to 0.0516728
Heightened Def Con from 0.0516728 to 0.0516728
Heightened Def Con from 0.0516728 to 0.0516728
Heightened Def Con from 0.0516728 to 0.0516728
Heightened Def Con from 0.0516728 to 0.0516728
Heightened Def Con from 0.0516728 to 0.0516728
Heightened Def Con from 0.0516728 to 0.0516728
Heightened Def Con from 0.0516728 to 0.0516728
Heightened Def Con from 0.0516728 to 0.0516728
Heightened Def Con from 0.0516728 to 0.0516728
Heightened Def Con from 0.0516728 to 0.0516728
Heightened Def Con from 0.0516728 to 0.0516728
Heightened Def Con from 0.0516728 to 0.0516728
Heightened Def Con from 0.0516728 to 0.0516728
Heightened Def Con from 0.0516728 to 0.0516728
Heightened Def Con from 0.0516728 to 0.0516728
Heightened Def Con from 0.0516728 to 0.0516728
Heightened Def Con from 0.0516728 to 0.0516728
Heightened Def Con from 0.0516728 to 0.0516728
Heightened Def Con from 0.0516728 to 0.0516728
Heightened Def Con from 0.0516728 to 0.0516728
Heightened Def Con from 0.0516728 to 0.0516728
Heightened Def Con from 0.0516728 to 0.0516728
Heightened Def Con from 0.0516728 to 0.0516728
Heightened Def Con from 0.0516728 to 0.0516728
Heightened Def Con from 0.0516728 to 0.0516728
Heightened Def Con from 0.0516728 to 0.0516728
Heightened Def Con from 0.0516729 to 0.0516729
Heightened Def Con from 0.0516729 to 0.0516729
Heightened Def Con from 0.0516729 to 0.0516729
Heightened Def Con from 0.0516729 to 0.0516729
Heightened Def Con from 0.0516729 to 0.0516729
Heightened Def Con from 0.0516729 to 0.0516729
Heightened Def Con from 0.0516729 to 0.0516729
Heightened Def Con from 0.0516729 to 0.0516729
Heightened Def Con from 0.0516729 to 0.0516729
Heightened Def Con from 0.0516729 to 0.0516729
Heightened Def Con from 0.0516729 to 0.0516729
Heightened Def Con from 0.0516729 to 0.0516729
Heightened Def Con from 0.0516729 to 0.0516729
Heightened Def Con from 0.0516729 to 0.0516729
Heightened Def Con from 0.0516729 to 0.0516729
Heightened Def Con from 0.0516729 to 0.0516729
Heightened Def Con from 0.0516729 to 0.0516729
Heightened Def Con from 0.0516729 to 0.0516729
Heightened Def Con from 0.0516729 to 0.0516729
Heightened Def Con from 0.0516729 to 0.0516729
Heightened Def Con from 0.0516729 to 0.0516729
Heightened Def Con from 0.0516729 to 0.0516729
Heightened Def Con from 0.0516729 to 0.0516729
Heightened Def Con from 0.0516729 to 0.0516729
Heightened Def Con from 0.0516729 to 0.0516729
Heightened Def Con from 0.0516729 to 0.0516729
Heightened Def Con from 0.0516729 to 0.0516729
Heightened Def Con from 0.0516729 to 0.0516729
Heightened Def Con from 0.0516729 to 0.0516729
Heightened Def Con from 0.0516729 to 0.0516729
Heightened Def Con from 0.0516729 to 0.0516729
Heightened Def Con from 0.0516729 to 0.0516729
Heightened Def Con from 0.0516729 to 0.0516729
Heightened Def Con from 0.0516729 to 0.0516729
Heightened Def Con from 0.0516729 to 0.0516729
Heightened Def Con from 0.0516729 to 0.0516729
Heightened Def Con from 0.0516729 to 0.0516729
Heightened Def Con from 0.0516729 to 0.0516729
Heightened Def Con from 0.0516729 to 0.0516729
Heightened Def Con from 0.0516729 to 0.0516729
Heightened Def Con from 0.051673 to 0.051673
Heightened Def Con from 0.051673 to 0.051673
Heightened Def Con from 0.051673 to 0.051673
Heightened Def Con from 0.051673 to 0.051673
Heightened Def Con from 0.051673 to 0.051673
Heightened Def Con from 0.051673 to 0.051673
Heightened Def Con from 0.051673 to 0.051673
Heightened Def Con from 0.051673 to 0.051673
Heightened Def Con from 0.051673 to 0.051673
Heightened Def Con from 0.051673 to 0.051673
Heightened Def Con from 0.051673 to 0.051673
Heightened Def Con from 0.051673 to 0.051673
Heightened Def Con from 0.051673 to 0.051673
Heightened Def Con from 0.051673 to 0.051673
Heightened Def Con from 0.051673 to 0.051673
Heightened Def Con from 0.051673 to 0.051673
Heightened Def Con from 0.051673 to 0.051673
Heightened Def Con from 0.051673 to 0.051673
Heightened Def Con from 0.051673 to 0.051673
Heightened Def Con from 0.051673 to 0.051673
Heightened Def Con from 0.051673 to 0.051673
Heightened Def Con from 0.051673 to 0.051673
Heightened Def Con from 0.051673 to 0.051673
Heightened Def Con from 0.051673 to 0.051673
Heightened Def Con from 0.051673 to 0.051673
Heightened Def Con from 0.051673 to 0.051673
Heightened Def Con from 0.051673 to 0.051673
Heightened Def Con from 0.051673 to 0.051673
Heightened Def Con from 0.051673 to 0.051673
Heightened Def Con from 0.051673 to 0.051673
Heightened Def Con from 0.051673 to 0.051673
Heightened Def Con from 0.051673 to 0.051673
Heightened Def Con from 0.051673 to 0.051673
Heightened Def Con from 0.0516731 to 0.0516731
Heightened Def Con from 0.0516731 to 0.0516731
Heightened Def Con from 0.0516731 to 0.0516731
Heightened Def Con from 0.0516731 to 0.0516731
Heightened Def Con from 0.0516731 to 0.0516731
Heightened Def Con from 0.0516731 to 0.0516731
Heightened Def Con from 0.0516731 to 0.0516731
Heightened Def Con from 0.0516731 to 0.0516731
Heightened Def Con from 0.0516731 to 0.0516731
Heightened Def Con from 0.0516731 to 0.0516731
Heightened Def Con from 0.0516731 to 0.0516731
Heightened Def Con from 0.0516731 to 0.0516731
Heightened Def Con from 0.0516731 to 0.0516731
Heightened Def Con from 0.0516731 to 0.0516731
Heightened Def Con from 0.0516731 to 0.0516731
Heightened Def Con from 0.0516731 to 0.0516731
Heightened Def Con from 0.0516731 to 0.0516731
Heightened Def Con from 0.0516731 to 0.0516731
Heightened Def Con from 0.0516731 to 0.0516731
Heightened Def Con from 0.0516731 to 0.0516731
Heightened Def Con from 0.0516731 to 0.0516731
Heightened Def Con from 0.0516731 to 0.0516731
Heightened Def Con from 0.0516731 to 0.0516731
Heightened Def Con from 0.0516731 to 0.0516731
Heightened Def Con from 0.0516731 to 0.0516731
Heightened Def Con from 0.0516731 to 0.0516731
Heightened Def Con from 0.0516731 to 0.0516731
Heightened Def Con from 0.0516731 to 0.0516731
Heightened Def Con from 0.0516731 to 0.0516731
Heightened Def Con from 0.0516732 to 0.0516732
Heightened Def Con from 0.0516732 to 0.0516732
Heightened Def Con from 0.0516732 to 0.0516732
Heightened Def Con from 0.0516732 to 0.0516732
Heightened Def Con from 0.0516732 to 0.0516732
Heightened Def Con from 0.0516732 to 0.0516732
Heightened Def Con from 0.0516732 to 0.0516732
Heightened Def Con from 0.0516732 to 0.0516732
Heightened Def Con from 0.0516732 to 0.0516732
Heightened Def Con from 0.0516732 to 0.0516732
Heightened Def Con from 0.0516732 to 0.0516732
Heightened Def Con from 0.0516732 to 0.0516732
Heightened Def Con from 0.0516732 to 0.0516732
Heightened Def Con from 0.0516732 to 0.0516732
Heightened Def Con from 0.0516732 to 0.0516732
Heightened Def Con from 0.0516732 to 0.0516732
Heightened Def Con from 0.0516732 to 0.0516732
Heightened Def Con from 0.0516732 to 0.0516732
Heightened Def Con from 0.0516732 to 0.0516732
Heightened Def Con from 0.0516733 to 0.0516733
Heightened Def Con from 0.0516733 to 0.0516733
Heightened Def Con from 0.0516733 to 0.0516733
Heightened Def Con from 0.0516733 to 0.0516733
Heightened Def Con from 0.0516733 to 0.0516733
Heightened Def Con from 0.0516733 to 0.0516733
Heightened Def Con from 0.0516733 to 0.0516733
Heightened Def Con from 0.0516733 to 0.0516733
Heightened Def Con from 0.0516733 to 0.0516733
Heightened Def Con from 0.0516733 to 0.0516733
Heightened Def Con from 0.0516733 to 0.0516733
Heightened Def Con from 0.0516733 to 0.0516733
Heightened Def Con from 0.0516733 to 0.0516733
Heightened Def Con from 0.0516733 to 0.0516733
Heightened Def Con from 0.0516733 to 0.0516733
Heightened Def Con from 0.0516733 to 0.0516733
Heightened Def Con from 0.0516733 to 0.0516733
Heightened Def Con from 0.0516733 to 0.0516733
Heightened Def Con from 0.0516733 to 0.0516733
Heightened Def Con from 0.0516733 to 0.0516733
Heightened Def Con from 0.0516733 to 0.0516733
Heightened Def Con from 0.0516733 to 0.0516733
Heightened Def Con from 0.0516733 to 0.0516733
Heightened Def Con from 0.0516733 to 0.0516733
Heightened Def Con from 0.0516733 to 0.0516733
Heightened Def Con from 0.0516733 to 0.0516733
Heightened Def Con from 0.0516733 to 0.0516733
Heightened Def Con from 0.0516733 to 0.0516733
Heightened Def Con from 0.0516733 to 0.0516733
Heightened Def Con from 0.0516733 to 0.0516733
Heightened Def Con from 0.0516733 to 0.0516733
Heightened Def Con from 0.0516733 to 0.0516733
Heightened Def Con from 0.0516733 to 0.0516733
Heightened Def Con from 0.0516733 to 0.0516733
Heightened Def Con from 0.0516733 to 0.0516733
Heightened Def Con from 0.0516733 to 0.0516733
Heightened Def Con from 0.0516733 to 0.0516733
Heightened Def Con from 0.0516733 to 0.0516733
Heightened Def Con from 0.0516733 to 0.0516733
Heightened Def Con from 0.0516733 to 0.0516734
Heightened Def Con from 0.0516734 to 0.0516734
Heightened Def Con from 0.0516734 to 0.0516734
Heightened Def Con from 0.0516734 to 0.0516734
Heightened Def Con from 0.0516734 to 0.0516734
Heightened Def Con from 0.0516734 to 0.0516734
Heightened Def Con from 0.0516734 to 0.0516734
Heightened Def Con from 0.0516734 to 0.0516734
Heightened Def Con from 0.0516734 to 0.0516734
Heightened Def Con from 0.0516734 to 0.0516734
Heightened Def Con from 0.0516734 to 0.0516734
Heightened Def Con from 0.0516734 to 0.0516734
Heightened Def Con from 0.0516734 to 0.0516734
Heightened Def Con from 0.0516734 to 0.0516734
Heightened Def Con from 0.0516734 to 0.0516734
Heightened Def Con from 0.0516734 to 0.0516734
Heightened Def Con from 0.0516734 to 0.0516734
Heightened Def Con from 0.0516734 to 0.0516734
Heightened Def Con from 0.0516734 to 0.0516734
Heightened Def Con from 0.0516734 to 0.0516734
Heightened Def Con from 0.0516734 to 0.0516734
Heightened Def Con from 0.0516734 to 0.0516734
Heightened Def Con from 0.0516734 to 0.0516734
Heightened Def Con from 0.0516734 to 0.0516734
Heightened Def Con from 0.0516734 to 0.0516734
Heightened Def Con from 0.0516734 to 0.0516734
Heightened Def Con from 0.0516734 to 0.0516734
Heightened Def Con from 0.0516734 to 0.0516734
Heightened Def Con from 0.0516734 to 0.0516734
Heightened Def Con from 0.0516734 to 0.0516734
Heightened Def Con from 0.0516734 to 0.0516734
Heightened Def Con from 0.0516734 to 0.0516734
Heightened Def Con from 0.0516734 to 0.0516734
Heightened Def Con from 0.0516734 to 0.0516734
Heightened Def Con from 0.0516734 to 0.0516734
Heightened Def Con from 0.0516734 to 0.0516734
Heightened Def Con from 0.0516734 to 0.0516734
Heightened Def Con from 0.0516734 to 0.0516734
Heightened Def Con from 0.0516734 to 0.0516734
Heightened Def Con from 0.0516734 to 0.0516734
Heightened Def Con from 0.0516734 to 0.0516734
Heightened Def Con from 0.0516734 to 0.0516734
Heightened Def Con from 0.0516735 to 0.0516735
Heightened Def Con from 0.0516735 to 0.0516735
Heightened Def Con from 0.0516735 to 0.0516735
Heightened Def Con from 0.0516735 to 0.0516735
Heightened Def Con from 0.0516735 to 0.0516735
Heightened Def Con from 0.0516735 to 0.0516735
Heightened Def Con from 0.0516735 to 0.0516735
Heightened Def Con from 0.0516735 to 0.0516735
Heightened Def Con from 0.0516735 to 0.0516735
Heightened Def Con from 0.0516735 to 0.0516735
Heightened Def Con from 0.0516735 to 0.0516735
Heightened Def Con from 0.0516735 to 0.0516735
Heightened Def Con from 0.0516735 to 0.0516735
Heightened Def Con from 0.0516735 to 0.0516735
Heightened Def Con from 0.0516735 to 0.0516735
Heightened Def Con from 0.0516735 to 0.0516735
Heightened Def Con from 0.0516735 to 0.0516735
Heightened Def Con from 0.0516735 to 0.0516735
Heightened Def Con from 0.0516735 to 0.0516735
Heightened Def Con from 0.0516735 to 0.0516735
Heightened Def Con from 0.0516735 to 0.0516735
Heightened Def Con from 0.0516735 to 0.0516735
Heightened Def Con from 0.0516735 to 0.0516735
Heightened Def Con from 0.0516735 to 0.0516735
Heightened Def Con from 0.0516735 to 0.0516735
Heightened Def Con from 0.0516735 to 0.0516735
Heightened Def Con from 0.0516735 to 0.0516735
Heightened Def Con from 0.0516735 to 0.0516735
Heightened Def Con from 0.0516735 to 0.0516735
Heightened Def Con from 0.0516735 to 0.0516735
Heightened Def Con from 0.0516735 to 0.0516735
Heightened Def Con from 0.0516735 to 0.0516735
Heightened Def Con from 0.0516735 to 0.0516735
Heightened Def Con from 0.0516735 to 0.0516735
Heightened Def Con from 0.0516735 to 0.0516735
Heightened Def Con from 0.0516735 to 0.0516735
Heightened Def Con from 0.0516735 to 0.0516735
Heightened Def Con from 0.0516736 to 0.0516736
Heightened Def Con from 0.0516736 to 0.0516736
Heightened Def Con from 0.0516736 to 0.0516736
Heightened Def Con from 0.0516736 to 0.0516736
Heightened Def Con from 0.0516736 to 0.0516736
Heightened Def Con from 0.0516736 to 0.0516736
Heightened Def Con from 0.0516736 to 0.0516736
Heightened Def Con from 0.0516736 to 0.0516736
Heightened Def Con from 0.0516736 to 0.0516736
Heightened Def Con from 0.0516736 to 0.0516736
Heightened Def Con from 0.0516736 to 0.0516736
Heightened Def Con from 0.0516736 to 0.0516736
Heightened Def Con from 0.0516736 to 0.0516736
Heightened Def Con from 0.0516736 to 0.0516736
Heightened Def Con from 0.0516736 to 0.0516736
Heightened Def Con from 0.0516736 to 0.0516736
Heightened Def Con from 0.0516736 to 0.0516736
Heightened Def Con from 0.0516736 to 0.0516736
Heightened Def Con from 0.0516736 to 0.0516736
Heightened Def Con from 0.0516736 to 0.0516736
Heightened Def Con from 0.0516736 to 0.0516736
Heightened Def Con from 0.0516736 to 0.0516736
Heightened Def Con from 0.0516736 to 0.0516736
Heightened Def Con from 0.0516736 to 0.0516736
Heightened Def Con from 0.0516736 to 0.0516736
Heightened Def Con from 0.0516737 to 0.0516737
Heightened Def Con from 0.0516737 to 0.0516737
Heightened Def Con from 0.0516737 to 0.0516737
Heightened Def Con from 0.0516737 to 0.0516737
Heightened Def Con from 0.0516737 to 0.0516737
Heightened Def Con from 0.0516737 to 0.0516737
Heightened Def Con from 0.0516737 to 0.0516737
Heightened Def Con from 0.0516737 to 0.0516737
Heightened Def Con from 0.0516737 to 0.0516737
Heightened Def Con from 0.0516737 to 0.0516737
Heightened Def Con from 0.0516737 to 0.0516737
Heightened Def Con from 0.0516737 to 0.0516737
Heightened Def Con from 0.0516737 to 0.0516737
Heightened Def Con from 0.0516737 to 0.0516737
Heightened Def Con from 0.0516737 to 0.0516737
Heightened Def Con from 0.0516737 to 0.0516737
Heightened Def Con from 0.0516737 to 0.0516737
Heightened Def Con from 0.0516737 to 0.0516737
Heightened Def Con from 0.0516737 to 0.0516737
Heightened Def Con from 0.0516737 to 0.0516737
Heightened Def Con from 0.0516737 to 0.0516737
Heightened Def Con from 0.0516737 to 0.0516737
Heightened Def Con from 0.0516737 to 0.0516737
Heightened Def Con from 0.0516737 to 0.0516737
Heightened Def Con from 0.0516737 to 0.0516737
Heightened Def Con from 0.0516737 to 0.0516737
Heightened Def Con from 0.0516737 to 0.0516737
Heightened Def Con from 0.0516737 to 0.0516737
Heightened Def Con from 0.0516737 to 0.0516737
Heightened Def Con from 0.0516737 to 0.0516737
Heightened Def Con from 0.0516737 to 0.0516737
Heightened Def Con from 0.0516737 to 0.0516737
Heightened Def Con from 0.0516737 to 0.0516737
Heightened Def Con from 0.0516737 to 0.0516737
Heightened Def Con from 0.0516737 to 0.0516737
Heightened Def Con from 0.0516737 to 0.0516737
Heightened Def Con from 0.0516737 to 0.0516737
Heightened Def Con from 0.0516738 to 0.0516738
Heightened Def Con from 0.0516738 to 0.0516738
Heightened Def Con from 0.0516738 to 0.0516738
Heightened Def Con from 0.0516738 to 0.0516738
Heightened Def Con from 0.0516738 to 0.0516738
Heightened Def Con from 0.0516738 to 0.0516738
Heightened Def Con from 0.0516738 to 0.0516738
Heightened Def Con from 0.0516738 to 0.0516738
Heightened Def Con from 0.0516738 to 0.0516738
Heightened Def Con from 0.0516738 to 0.0516738
Heightened Def Con from 0.0516738 to 0.0516738
Heightened Def Con from 0.0516738 to 0.0516738
Heightened Def Con from 0.0516738 to 0.0516738
Heightened Def Con from 0.0516738 to 0.0516738
Heightened Def Con from 0.0516738 to 0.0516738
Heightened Def Con from 0.0516738 to 0.0516738
Heightened Def Con from 0.0516738 to 0.0516738
Heightened Def Con from 0.0516738 to 0.0516738
Heightened Def Con from 0.0516738 to 0.0516738
Heightened Def Con from 0.0516738 to 0.0516738
Heightened Def Con from 0.0516738 to 0.0516738
Heightened Def Con from 0.0516738 to 0.0516738
Heightened Def Con from 0.0516738 to 0.0516738
Heightened Def Con from 0.0516738 to 0.0516738
Heightened Def Con from 0.0516738 to 0.0516738
Heightened Def Con from 0.0516738 to 0.0516738
Heightened Def Con from 0.0516738 to 0.0516738
Heightened Def Con from 0.0516738 to 0.0516738
Heightened Def Con from 0.0516738 to 0.0516738
Heightened Def Con from 0.0516738 to 0.0516738
Heightened Def Con from 0.0516738 to 0.0516738
Heightened Def Con from 0.0516739 to 0.0516739
Heightened Def Con from 0.0516739 to 0.0516739
Heightened Def Con from 0.0516739 to 0.0516739
Heightened Def Con from 0.0516739 to 0.0516739
Heightened Def Con from 0.0516739 to 0.0516739
Heightened Def Con from 0.0516739 to 0.0516739
Heightened Def Con from 0.0516739 to 0.0516739
Heightened Def Con from 0.0516739 to 0.0516739
Heightened Def Con from 0.0516739 to 0.0516739
Heightened Def Con from 0.0516739 to 0.0516739
Heightened Def Con from 0.0516739 to 0.0516739
Heightened Def Con from 0.0516739 to 0.0516739
Heightened Def Con from 0.0516739 to 0.0516739
Heightened Def Con from 0.0516739 to 0.0516739
Heightened Def Con from 0.0516739 to 0.0516739
Heightened Def Con from 0.0516739 to 0.0516739
Heightened Def Con from 0.0516739 to 0.0516739
Heightened Def Con from 0.0516739 to 0.0516739
Heightened Def Con from 0.0516739 to 0.0516739
Heightened Def Con from 0.0516739 to 0.0516739
Heightened Def Con from 0.0516739 to 0.0516739
Heightened Def Con from 0.0516739 to 0.0516739
Heightened Def Con from 0.0516739 to 0.0516739
Heightened Def Con from 0.0516739 to 0.0516739
Heightened Def Con from 0.0516739 to 0.0516739
Heightened Def Con from 0.0516739 to 0.0516739
Heightened Def Con from 0.0516739 to 0.0516739
Heightened Def Con from 0.051674 to 0.051674
Heightened Def Con from 0.051674 to 0.051674
Heightened Def Con from 0.051674 to 0.051674
Heightened Def Con from 0.051674 to 0.051674
Heightened Def Con from 0.051674 to 0.051674
Heightened Def Con from 0.051674 to 0.051674
Heightened Def Con from 0.051674 to 0.051674
Heightened Def Con from 0.051674 to 0.051674
Heightened Def Con from 0.051674 to 0.051674
Heightened Def Con from 0.051674 to 0.051674
Heightened Def Con from 0.051674 to 0.051674
Heightened Def Con from 0.051674 to 0.051674
Heightened Def Con from 0.051674 to 0.051674
Heightened Def Con from 0.051674 to 0.051674
Heightened Def Con from 0.051674 to 0.051674
Heightened Def Con from 0.051674 to 0.051674
Heightened Def Con from 0.051674 to 0.051674
Heightened Def Con from 0.051674 to 0.051674
Heightened Def Con from 0.051674 to 0.051674
Heightened Def Con from 0.051674 to 0.051674
Heightened Def Con from 0.051674 to 0.051674
Heightened Def Con from 0.051674 to 0.051674
Heightened Def Con from 0.051674 to 0.051674
Heightened Def Con from 0.051674 to 0.051674
Heightened Def Con from 0.051674 to 0.051674
Heightened Def Con from 0.051674 to 0.051674
Heightened Def Con from 0.051674 to 0.051674
Heightened Def Con from 0.051674 to 0.051674
Heightened Def Con from 0.051674 to 0.051674
Heightened Def Con from 0.051674 to 0.051674
Heightened Def Con from 0.051674 to 0.051674
Heightened Def Con from 0.051674 to 0.051674
Heightened Def Con from 0.051674 to 0.051674
Heightened Def Con from 0.051674 to 0.051674
Heightened Def Con from 0.051674 to 0.051674
Heightened Def Con from 0.051674 to 0.051674
Heightened Def Con from 0.051674 to 0.051674
Heightened Def Con from 0.051674 to 0.051674
Heightened Def Con from 0.051674 to 0.051674
Heightened Def Con from 0.051674 to 0.051674
Heightened Def Con from 0.051674 to 0.051674
Heightened Def Con from 0.051674 to 0.051674
Heightened Def Con from 0.051674 to 0.051674
Heightened Def Con from 0.051674 to 0.0516741
Heightened Def Con from 0.0516741 to 0.0516741
Heightened Def Con from 0.0516741 to 0.0516741
Heightened Def Con from 0.0516741 to 0.0516741
Heightened Def Con from 0.0516741 to 0.0516741
Heightened Def Con from 0.0516741 to 0.0516741
Heightened Def Con from 0.0516741 to 0.0516741
Heightened Def Con from 0.0516741 to 0.0516741
Heightened Def Con from 0.0516741 to 0.0516741
Heightened Def Con from 0.0516741 to 0.0516741
Heightened Def Con from 0.0516741 to 0.0516741
Heightened Def Con from 0.0516741 to 0.0516741
Heightened Def Con from 0.0516741 to 0.0516741
Heightened Def Con from 0.0516741 to 0.0516741
Heightened Def Con from 0.0516741 to 0.0516741
Heightened Def Con from 0.0516741 to 0.0516741
Heightened Def Con from 0.0516741 to 0.0516741
Heightened Def Con from 0.0516741 to 0.0516741
Heightened Def Con from 0.0516741 to 0.0516741
Heightened Def Con from 0.0516741 to 0.0516741
Heightened Def Con from 0.0516741 to 0.0516741
Heightened Def Con from 0.0516741 to 0.0516741
Heightened Def Con from 0.0516741 to 0.0516741
Heightened Def Con from 0.0516741 to 0.0516741
Heightened Def Con from 0.0516741 to 0.0516741
Heightened Def Con from 0.0516741 to 0.0516741
Heightened Def Con from 0.0516741 to 0.0516741
Heightened Def Con from 0.0516741 to 0.0516741
Heightened Def Con from 0.0516741 to 0.0516741
Heightened Def Con from 0.0516741 to 0.0516741
Heightened Def Con from 0.0516741 to 0.0516741
Heightened Def Con from 0.0516741 to 0.0516742
Heightened Def Con from 0.0516742 to 0.0516742
Heightened Def Con from 0.0516742 to 0.0516742
Heightened Def Con from 0.0516742 to 0.0516742
Heightened Def Con from 0.0516742 to 0.0516742
Heightened Def Con from 0.0516742 to 0.0516742
Heightened Def Con from 0.0516742 to 0.0516742
Heightened Def Con from 0.0516742 to 0.0516742
Heightened Def Con from 0.0516742 to 0.0516742
Heightened Def Con from 0.0516742 to 0.0516742
Heightened Def Con from 0.0516742 to 0.0516742
Heightened Def Con from 0.0516742 to 0.0516742
Heightened Def Con from 0.0516742 to 0.0516742
Heightened Def Con from 0.0516742 to 0.0516742
Heightened Def Con from 0.0516742 to 0.0516742
Heightened Def Con from 0.0516742 to 0.0516742
Heightened Def Con from 0.0516742 to 0.0516742
Heightened Def Con from 0.0516742 to 0.0516742
Heightened Def Con from 0.0516742 to 0.0516742
Heightened Def Con from 0.0516742 to 0.0516742
Heightened Def Con from 0.0516742 to 0.0516742
Heightened Def Con from 0.0516742 to 0.0516742
Heightened Def Con from 0.0516742 to 0.0516742
Heightened Def Con from 0.0516742 to 0.0516742
Heightened Def Con from 0.0516742 to 0.0516742
Heightened Def Con from 0.0516742 to 0.0516742
Heightened Def Con from 0.0516742 to 0.0516742
Heightened Def Con from 0.0516742 to 0.0516742
Heightened Def Con from 0.0516742 to 0.0516742
Heightened Def Con from 0.0516742 to 0.0516742
Heightened Def Con from 0.0516742 to 0.0516742
Heightened Def Con from 0.0516742 to 0.0516742
Heightened Def Con from 0.0516742 to 0.0516742
Heightened Def Con from 0.0516742 to 0.0516742
Heightened Def Con from 0.0516742 to 0.0516742
Heightened Def Con from 0.0516743 to 0.0516743
Heightened Def Con from 0.0516743 to 0.0516743
Heightened Def Con from 0.0516743 to 0.0516743
Heightened Def Con from 0.0516743 to 0.0516743
Heightened Def Con from 0.0516743 to 0.0516743
Heightened Def Con from 0.0516743 to 0.0516743
Heightened Def Con from 0.0516743 to 0.0516743
Heightened Def Con from 0.0516743 to 0.0516743
Heightened Def Con from 0.0516743 to 0.0516743
Heightened Def Con from 0.0516743 to 0.0516743
Heightened Def Con from 0.0516743 to 0.0516743
Heightened Def Con from 0.0516743 to 0.0516743
Heightened Def Con from 0.0516743 to 0.0516743
Heightened Def Con from 0.0516743 to 0.0516743
Heightened Def Con from 0.0516743 to 0.0516743
Heightened Def Con from 0.0516743 to 0.0516743
Heightened Def Con from 0.0516743 to 0.0516743
Heightened Def Con from 0.0516743 to 0.0516743
Heightened Def Con from 0.0516743 to 0.0516743
Heightened Def Con from 0.0516743 to 0.0516743
Heightened Def Con from 0.0516743 to 0.0516743
Heightened Def Con from 0.0516743 to 0.0516743
Heightened Def Con from 0.0516743 to 0.0516743
Heightened Def Con from 0.0516743 to 0.0516743
Heightened Def Con from 0.0516743 to 0.0516743
Heightened Def Con from 0.0516743 to 0.0516743
Heightened Def Con from 0.0516743 to 0.0516743
Heightened Def Con from 0.0516743 to 0.0516743
Heightened Def Con from 0.0516744 to 0.0516744
Heightened Def Con from 0.0516744 to 0.0516744
Heightened Def Con from 0.0516744 to 0.0516744
Heightened Def Con from 0.0516744 to 0.0516744
Heightened Def Con from 0.0516744 to 0.0516744
Heightened Def Con from 0.0516744 to 0.0516744
Heightened Def Con from 0.0516744 to 0.0516744
Heightened Def Con from 0.0516744 to 0.0516744
Heightened Def Con from 0.0516744 to 0.0516744
Heightened Def Con from 0.0516744 to 0.0516744
Heightened Def Con from 0.0516744 to 0.0516744
Heightened Def Con from 0.0516744 to 0.0516744
Heightened Def Con from 0.0516744 to 0.0516744
Heightened Def Con from 0.0516744 to 0.0516744
Heightened Def Con from 0.0516744 to 0.0516744
Heightened Def Con from 0.0516744 to 0.0516744
Heightened Def Con from 0.0516744 to 0.0516744
Heightened Def Con from 0.0516744 to 0.0516744
Heightened Def Con from 0.0516744 to 0.0516744
Heightened Def Con from 0.0516744 to 0.0516744
Heightened Def Con from 0.0516744 to 0.0516744
Heightened Def Con from 0.0516744 to 0.0516744
Heightened Def Con from 0.0516744 to 0.0516744
Heightened Def Con from 0.0516744 to 0.0516744
Heightened Def Con from 0.0516744 to 0.0516744
Heightened Def Con from 0.0516744 to 0.0516744
Heightened Def Con from 0.0516744 to 0.0516744
Heightened Def Con from 0.0516744 to 0.0516744
Heightened Def Con from 0.0516744 to 0.0516744
Heightened Def Con from 0.0516744 to 0.0516744
Heightened Def Con from 0.0516744 to 0.0516744
Heightened Def Con from 0.0516744 to 0.0516744
Heightened Def Con from 0.0516745 to 0.0516745
Heightened Def Con from 0.0516745 to 0.0516745
Heightened Def Con from 0.0516745 to 0.0516745
Heightened Def Con from 0.0516745 to 0.0516745
Heightened Def Con from 0.0516745 to 0.0516745
Heightened Def Con from 0.0516745 to 0.0516745
Heightened Def Con from 0.0516745 to 0.0516745
Heightened Def Con from 0.0516745 to 0.0516745
Heightened Def Con from 0.0516745 to 0.0516745
Heightened Def Con from 0.0516745 to 0.0516745
Heightened Def Con from 0.0516745 to 0.0516745
Heightened Def Con from 0.0516745 to 0.0516745
Heightened Def Con from 0.0516745 to 0.0516745
Heightened Def Con from 0.0516745 to 0.0516745
Heightened Def Con from 0.0516745 to 0.0516745
Heightened Def Con from 0.0516745 to 0.0516745
Heightened Def Con from 0.0516745 to 0.0516745
Heightened Def Con from 0.0516745 to 0.0516745
Heightened Def Con from 0.0516746 to 0.0516746
Heightened Def Con from 0.0516746 to 0.0516746
Heightened Def Con from 0.0516746 to 0.0516746
Heightened Def Con from 0.0516746 to 0.0516746
Heightened Def Con from 0.0516746 to 0.0516746
Heightened Def Con from 0.0516746 to 0.0516746
Heightened Def Con from 0.0516746 to 0.0516746
Heightened Def Con from 0.0516746 to 0.0516746
Heightened Def Con from 0.0516746 to 0.0516746
Heightened Def Con from 0.0516746 to 0.0516746
Heightened Def Con from 0.0516746 to 0.0516746
Heightened Def Con from 0.0516746 to 0.0516746
Heightened Def Con from 0.0516746 to 0.0516746
Heightened Def Con from 0.0516746 to 0.0516746
Heightened Def Con from 0.0516746 to 0.0516746
Heightened Def Con from 0.0516746 to 0.0516746
Heightened Def Con from 0.0516746 to 0.0516746
Heightened Def Con from 0.0516746 to 0.0516746
Heightened Def Con from 0.0516746 to 0.0516746
Heightened Def Con from 0.0516746 to 0.0516746
Heightened Def Con from 0.0516746 to 0.0516746
Heightened Def Con from 0.0516746 to 0.0516746
Heightened Def Con from 0.0516746 to 0.0516746
Heightened Def Con from 0.0516746 to 0.0516746
Heightened Def Con from 0.0516746 to 0.0516746
Heightened Def Con from 0.0516746 to 0.0516746
Heightened Def Con from 0.0516746 to 0.0516746
Heightened Def Con from 0.0516746 to 0.0516746
Heightened Def Con from 0.0516746 to 0.0516746
Heightened Def Con from 0.0516746 to 0.0516746
Heightened Def Con from 0.0516746 to 0.0516746
Heightened Def Con from 0.0516746 to 0.0516746
Heightened Def Con from 0.0516746 to 0.0516746
Heightened Def Con from 0.0516747 to 0.0516747
Heightened Def Con from 0.0516747 to 0.0516747
Heightened Def Con from 0.0516747 to 0.0516747
Heightened Def Con from 0.0516747 to 0.0516747
Heightened Def Con from 0.0516747 to 0.0516747
Heightened Def Con from 0.0516747 to 0.0516747
Heightened Def Con from 0.0516747 to 0.0516747
Heightened Def Con from 0.0516747 to 0.0516747
Heightened Def Con from 0.0516747 to 0.0516747
Heightened Def Con from 0.0516747 to 0.0516747
Heightened Def Con from 0.0516747 to 0.0516747
Heightened Def Con from 0.0516747 to 0.0516747
Heightened Def Con from 0.0516747 to 0.0516747
Heightened Def Con from 0.0516747 to 0.0516747
Heightened Def Con from 0.0516747 to 0.0516747
Heightened Def Con from 0.0516747 to 0.0516747
Heightened Def Con from 0.0516747 to 0.0516747
Heightened Def Con from 0.0516747 to 0.0516747
Heightened Def Con from 0.0516747 to 0.0516747
Heightened Def Con from 0.0516747 to 0.0516747
Heightened Def Con from 0.0516747 to 0.0516747
Heightened Def Con from 0.0516747 to 0.0516747
Heightened Def Con from 0.0516747 to 0.0516747
Heightened Def Con from 0.0516747 to 0.0516747
Heightened Def Con from 0.0516748 to 0.0516748
Heightened Def Con from 0.0516748 to 0.0516748
Heightened Def Con from 0.0516748 to 0.0516748
Heightened Def Con from 0.0516748 to 0.0516748
Heightened Def Con from 0.0516748 to 0.0516748
Heightened Def Con from 0.0516749 to 0.0516749
Heightened Def Con from 0.0516749 to 0.0516749
Heightened Def Con from 0.0516749 to 0.0516749
Heightened Def Con from 0.0516749 to 0.0516749
Heightened Def Con from 0.0516749 to 0.0516749
Heightened Def Con from 0.0516749 to 0.0516749
Heightened Def Con from 0.0516749 to 0.0516749
Heightened Def Con from 0.0516749 to 0.0516749
Heightened Def Con from 0.0516749 to 0.0516749
Heightened Def Con from 0.0516749 to 0.0516749
Heightened Def Con from 0.0516749 to 0.0516749
Heightened Def Con from 0.0516749 to 0.0516749
Heightened Def Con from 0.0516749 to 0.0516749
Heightened Def Con from 0.0516749 to 0.0516749
Heightened Def Con from 0.0516749 to 0.0516749
Heightened Def Con from 0.0516749 to 0.0516749
Heightened Def Con from 0.0516749 to 0.0516749
Heightened Def Con from 0.0516749 to 0.0516749
Heightened Def Con from 0.051675 to 0.051675
Heightened Def Con from 0.051675 to 0.051675
Heightened Def Con from 0.051675 to 0.051675
Heightened Def Con from 0.051675 to 0.051675
Heightened Def Con from 0.051675 to 0.051675
Heightened Def Con from 0.051675 to 0.051675
Heightened Def Con from 0.051675 to 0.051675
Heightened Def Con from 0.051675 to 0.051675
Heightened Def Con from 0.051675 to 0.051675
Heightened Def Con from 0.051675 to 0.051675
Heightened Def Con from 0.051675 to 0.051675
Heightened Def Con from 0.051675 to 0.051675
Heightened Def Con from 0.051675 to 0.051675
Heightened Def Con from 0.051675 to 0.051675
Heightened Def Con from 0.051675 to 0.051675
Heightened Def Con from 0.051675 to 0.051675
Heightened Def Con from 0.051675 to 0.051675
Heightened Def Con from 0.051675 to 0.051675
Heightened Def Con from 0.051675 to 0.051675
Heightened Def Con from 0.051675 to 0.051675
Heightened Def Con from 0.051675 to 0.051675
Heightened Def Con from 0.051675 to 0.051675
Heightened Def Con from 0.051675 to 0.051675
Heightened Def Con from 0.051675 to 0.051675
Heightened Def Con from 0.051675 to 0.051675
Heightened Def Con from 0.051675 to 0.051675
Heightened Def Con from 0.051675 to 0.051675
Heightened Def Con from 0.0516751 to 0.0516751
Heightened Def Con from 0.0516751 to 0.0516751
Heightened Def Con from 0.0516751 to 0.0516751
Heightened Def Con from 0.0516751 to 0.0516751
Heightened Def Con from 0.0516751 to 0.0516751
Heightened Def Con from 0.0516751 to 0.0516751
Heightened Def Con from 0.0516751 to 0.0516751
Heightened Def Con from 0.0516751 to 0.0516751
Heightened Def Con from 0.0516751 to 0.0516751
Heightened Def Con from 0.0516751 to 0.0516751
Heightened Def Con from 0.0516751 to 0.0516751
Heightened Def Con from 0.0516751 to 0.0516751
Heightened Def Con from 0.0516751 to 0.0516751
Heightened Def Con from 0.0516751 to 0.0516751
Heightened Def Con from 0.0516751 to 0.0516751
Heightened Def Con from 0.0516751 to 0.0516751
Heightened Def Con from 0.0516751 to 0.0516751
Heightened Def Con from 0.0516751 to 0.0516751
Heightened Def Con from 0.0516751 to 0.0516751
Heightened Def Con from 0.0516751 to 0.0516751
Heightened Def Con from 0.0516751 to 0.0516751
Heightened Def Con from 0.0516751 to 0.0516751
Heightened Def Con from 0.0516751 to 0.0516751
Heightened Def Con from 0.0516751 to 0.0516751
Heightened Def Con from 0.0516751 to 0.0516751
Heightened Def Con from 0.0516751 to 0.0516751
Heightened Def Con from 0.0516751 to 0.0516751
Heightened Def Con from 0.0516752 to 0.0516752
Heightened Def Con from 0.0516752 to 0.0516752
Heightened Def Con from 0.0516752 to 0.0516752
Heightened Def Con from 0.0516752 to 0.0516753
Heightened Def Con from 0.0516753 to 0.0516753
Heightened Def Con from 0.0516753 to 0.0516753
Heightened Def Con from 0.0516754 to 0.0516754
Heightened Def Con from 0.0516754 to 0.0516754
Heightened Def Con from 0.0516755 to 0.0516755
Heightened Def Con from 0.0516755 to 0.0516755
Heightened Def Con from 0.0516755 to 0.0516755
Heightened Def Con from 0.0516755 to 0.0516755
Heightened Def Con from 0.0516755 to 0.0516755
Heightened Def Con from 0.0516755 to 0.0516755
Heightened Def Con from 0.0516755 to 0.0516755
Heightened Def Con from 0.0516755 to 0.0516755
Heightened Def Con from 0.0516755 to 0.0516755
Heightened Def Con from 0.0516755 to 0.0516755
Heightened Def Con from 0.0516755 to 0.0516755
Heightened Def Con from 0.0516755 to 0.0516755
Heightened Def Con from 0.0516756 to 0.0516756
Heightened Def Con from 0.0516756 to 0.0516756
Heightened Def Con from 0.0516756 to 0.0516756
Heightened Def Con from 0.0516756 to 0.0516756
Heightened Def Con from 0.0516756 to 0.0516756
Heightened Def Con from 0.0516756 to 0.0516756
Heightened Def Con from 0.0516756 to 0.0516756
Heightened Def Con from 0.0516756 +to 0.0516756
Heightened Def Con from 0.0516756 to 0.0516756
Heightened Def Con from 0.0516756 to 0.0516756
Heightened Def Con from 0.0516756 to 0.0516756
Heightened Def Con from 0.0516756 to 0.0516756
Heightened Def Con from 0.0516756 to 0.0516756
Heightened Def Con from 0.0516756 to 0.0516756
Heightened Def Con from 0.0516756 to 0.0516756
Heightened Def Con from 0.0516756 to 0.0516756
Heightened Def Con from 0.0516756 to 0.0516756
Heightened Def Con from 0.0516756 to 0.0516756
Heightened Def Con from 0.0516756 to 0.0516756
Heightened Def Con from 0.0516756 to 0.0516756
Heightened Def Con from 0.0516756 to 0.0516756
Heightened Def Con from 0.0516756 to 0.0516756
Heightened Def Con from 0.0516756 to 0.0516756
Heightened Def Con from 0.0516756 to 0.0516756
Heightened Def Con from 0.0516756 to 0.0516756
Heightened Def Con from 0.0516757 to 0.0516757
Heightened Def Con from 0.0516757 to 0.0516757
Heightened Def Con from 0.0516757 to 0.0516757
Heightened Def Con from 0.0516757 to 0.0516757
Heightened Def Con from 0.0516757 to 0.0516757
Heightened Def Con from 0.0516757 to 0.0516757
Heightened Def Con from 0.0516757 to 0.0516757
Heightened Def Con from 0.0516757 to 0.0516757
Heightened Def Con from 0.0516757 to 0.0516757
Heightened Def Con from 0.0516757 to 0.0516757
Heightened Def Con from 0.0516757 to 0.0516757
Heightened Def Con from 0.0516757 to 0.0516757
Heightened Def Con from 0.0516757 to 0.0516757
Heightened Def Con from 0.0516757 to 0.0516757
Heightened Def Con from 0.0516757 to 0.0516757
Heightened Def Con from 0.0516757 to 0.0516757
Heightened Def Con from 0.0516757 to 0.0516757
Heightened Def Con from 0.0516757 to 0.0516757
Heightened Def Con from 0.0516757 to 0.0516757
Heightened Def Con from 0.0516757 to 0.0516757
Heightened Def Con from 0.0516757 to 0.0516757
Heightened Def Con from 0.0516757 to 0.0516757
Heightened Def Con from 0.0516757 to 0.0516757
Heightened Def Con from 0.0516757 to 0.0516757
Heightened Def Con from 0.0516757 to 0.0516757
Heightened Def Con from 0.0516757 to 0.0516757
Heightened Def Con from 0.0516757 to 0.0516757
Heightened Def Con from 0.0516757 to 0.0516757
Heightened Def Con from 0.0516757 to 0.0516757
Heightened Def Con from 0.0516757 to 0.0516757
Heightened Def Con from 0.0516757 to 0.0516757
Heightened Def Con from 0.0516757 to 0.0516757
Heightened Def Con from 0.0516757 to 0.0516757
Heightened Def Con from 0.0516757 to 0.0516757
Heightened Def Con from 0.0516757 to 0.0516757
Heightened Def Con from 0.0516757 to 0.0516757
Heightened Def Con from 0.0516757 to 0.0516757
Heightened Def Con from 0.0516757 to 0.0516757
Heightened Def Con from 0.0516757 to 0.0516757
Heightened Def Con from 0.0516758 to 0.0516758
Heightened Def Con from 0.0516758 to 0.0516758
Heightened Def Con from 0.0516758 to 0.0516758
Heightened Def Con from 0.0516758 to 0.0516758
Heightened Def Con from 0.0516758 to 0.0516758
Heightened Def Con from 0.0516758 to 0.0516758
Heightened Def Con from 0.0516758 to 0.0516758
Heightened Def Con from 0.0516758 to 0.0516758
Heightened Def Con from 0.0516758 to 0.0516758
Heightened Def Con from 0.0516758 to 0.0516758
Heightened Def Con from 0.0516758 to 0.0516758
Heightened Def Con from 0.0516758 to 0.0516758
Heightened Def Con from 0.0516758 to 0.0516758
Heightened Def Con from 0.0516758 to 0.0516758
Heightened Def Con from 0.0516758 to 0.0516758
Heightened Def Con from 0.0516758 to 0.0516758
Heightened Def Con from 0.0516758 to 0.0516758
Heightened Def Con from 0.0516758 to 0.0516758
Heightened Def Con from 0.0516758 to 0.0516758
Heightened Def Con from 0.0516758 to 0.0516758
Heightened Def Con from 0.0516758 to 0.0516758
Heightened Def Con from 0.0516758 to 0.0516758
Heightened Def Con from 0.0516758 to 0.0516758
Heightened Def Con from 0.0516758 to 0.0516758
Heightened Def Con from 0.0516758 to 0.0516758
Heightened Def Con from 0.0516758 to 0.0516758
Heightened Def Con from 0.0516758 to 0.0516758
Heightened Def Con from 0.0516758 to 0.0516758
Heightened Def Con from 0.0516758 to 0.0516758
Heightened Def Con from 0.0516758 to 0.0516758
Heightened Def Con from 0.0516758 to 0.0516758
Heightened Def Con from 0.0516758 to 0.0516758
Heightened Def Con from 0.0516758 to 0.0516759
Heightened Def Con from 0.0516759 to 0.0516759
Heightened Def Con from 0.0516759 to 0.0516759
Heightened Def Con from 0.0516759 to 0.0516759
Heightened Def Con from 0.0516759 to 0.0516759
Heightened Def Con from 0.0516759 to 0.0516759
Heightened Def Con from 0.0516759 to 0.0516759
Heightened Def Con from 0.0516759 to 0.0516759
Heightened Def Con from 0.0516759 to 0.0516759
Heightened Def Con from 0.0516759 to 0.0516759
Heightened Def Con from 0.0516759 to 0.0516759
Heightened Def Con from 0.0516759 to 0.0516759
Heightened Def Con from 0.0516759 to 0.0516759
Heightened Def Con from 0.0516759 to 0.0516759
Heightened Def Con from 0.0516759 to 0.0516759
Heightened Def Con from 0.0516759 to 0.0516759
Heightened Def Con from 0.0516759 to 0.0516759
Heightened Def Con from 0.0516759 to 0.0516759
Heightened Def Con from 0.0516759 to 0.0516759
Heightened Def Con from 0.0516759 to 0.0516759
Heightened Def Con from 0.0516759 to 0.0516759
Heightened Def Con from 0.0516759 to 0.0516759
Heightened Def Con from 0.0516759 to 0.0516759
Heightened Def Con from 0.0516759 to 0.0516759
Heightened Def Con from 0.0516759 to 0.0516759
Heightened Def Con from 0.0516759 to 0.0516759
Heightened Def Con from 0.051676 to 0.051676
Heightened Def Con from 0.051676 to 0.051676
Heightened Def Con from 0.051676 to 0.051676
Heightened Def Con from 0.051676 to 0.051676
Heightened Def Con from 0.051676 to 0.051676
Heightened Def Con from 0.051676 to 0.051676
Heightened Def Con from 0.051676 to 0.051676
Heightened Def Con from 0.051676 to 0.051676
Heightened Def Con from 0.051676 to 0.051676
Heightened Def Con from 0.051676 to 0.051676
Heightened Def Con from 0.051676 to 0.051676
Heightened Def Con from 0.051676 to 0.051676
Heightened Def Con from 0.051676 to 0.051676
Heightened Def Con from 0.051676 to 0.0516761
Heightened Def Con from 0.0516761 to 0.0516761
Heightened Def Con from 0.0516761 to 0.0516761
Heightened Def Con from 0.0516761 to 0.0516761
Heightened Def Con from 0.0516761 to 0.0516761
Heightened Def Con from 0.0516761 to 0.0516761
Heightened Def Con from 0.0516761 to 0.0516761
Heightened Def Con from 0.0516761 to 0.0516761
Heightened Def Con from 0.0516761 to 0.0516761
Heightened Def Con from 0.0516761 to 0.0516761
Heightened Def Con from 0.0516761 to 0.0516761
Heightened Def Con from 0.0516761 to 0.0516761
Heightened Def Con from 0.0516761 to 0.0516761
Heightened Def Con from 0.0516761 to 0.0516761
Heightened Def Con from 0.0516761 to 0.0516761
Heightened Def Con from 0.0516761 to 0.0516761
Heightened Def Con from 0.0516761 to 0.0516761
Heightened Def Con from 0.0516761 to 0.0516761
Heightened Def Con from 0.0516761 to 0.0516761
Heightened Def Con from 0.0516761 to 0.0516761
Heightened Def Con from 0.0516761 to 0.0516761
Heightened Def Con from 0.0516761 to 0.0516761
Heightened Def Con from 0.0516761 to 0.0516761
Heightened Def Con from 0.0516761 to 0.0516761
Heightened Def Con from 0.0516761 to 0.0516761
Heightened Def Con from 0.0516761 to 0.0516761
Heightened Def Con from 0.0516761 to 0.0516761
Heightened Def Con from 0.0516761 to 0.0516761
Heightened Def Con from 0.0516761 to 0.0516761
Heightened Def Con from 0.0516761 to 0.0516761
Heightened Def Con from 0.0516761 to 0.0516762
Heightened Def Con from 0.0516762 to 0.0516762
Heightened Def Con from 0.0516762 to 0.0516762
Heightened Def Con from 0.0516762 to 0.0516762
Heightened Def Con from 0.0516762 to 0.0516762
Heightened Def Con from 0.0516762 to 0.0516762
Heightened Def Con from 0.0516762 to 0.0516762
Heightened Def Con from 0.0516762 to 0.0516762
Heightened Def Con from 0.0516762 to 0.0516762
Heightened Def Con from 0.0516762 to 0.0516762
Heightened Def Con from 0.0516762 to 0.0516762
Heightened Def Con from 0.0516762 to 0.0516762
Heightened Def Con from 0.0516762 to 0.0516762
Heightened Def Con from 0.0516762 to 0.0516762
Heightened Def Con from 0.0516762 to 0.0516762
Heightened Def Con from 0.0516762 to 0.0516762
Heightened Def Con from 0.0516762 to 0.0516762
Heightened Def Con from 0.0516762 to 0.0516762
Heightened Def Con from 0.0516762 to 0.0516762
Heightened Def Con from 0.0516762 to 0.0516762
Heightened Def Con from 0.0516762 to 0.0516762
Heightened Def Con from 0.0516762 to 0.0516762
Heightened Def Con from 0.0516762 to 0.0516762
Heightened Def Con from 0.0516762 to 0.0516762
Heightened Def Con from 0.0516762 to 0.0516762
Heightened Def Con from 0.0516762 to 0.0516762
Heightened Def Con from 0.0516762 to 0.0516762
Heightened Def Con from 0.0516762 to 0.0516762
Heightened Def Con from 0.0516762 to 0.0516762
Heightened Def Con from 0.0516762 to 0.0516762
Heightened Def Con from 0.0516762 to 0.0516762
Heightened Def Con from 0.0516763 to 0.0516763
Heightened Def Con from 0.0516763 to 0.0516763
Heightened Def Con from 0.0516764 to 0.0516764
Heightened Def Con from 0.0516764 to 0.0516764
Heightened Def Con from 0.0516764 to 0.0516764
Heightened Def Con from 0.0516764 to 0.0516764
Heightened Def Con from 0.0516764 to 0.0516764
Heightened Def Con from 0.0516764 to 0.0516764
Heightened Def Con from 0.0516764 to 0.0516764
Heightened Def Con from 0.0516764 to 0.0516764
Heightened Def Con from 0.0516764 to 0.0516764
Heightened Def Con from 0.0516764 to 0.0516764
Heightened Def Con from 0.0516764 to 0.0516764
Heightened Def Con from 0.0516764 to 0.0516764
Heightened Def Con from 0.0516764 to 0.0516764
Heightened Def Con from 0.0516764 to 0.0516764
Heightened Def Con from 0.0516764 to 0.0516764
Heightened Def Con from 0.0516765 to 0.0516765
Heightened Def Con from 0.0516765 to 0.0516765
Heightened Def Con from 0.0516765 to 0.0516765
Heightened Def Con from 0.0516765 to 0.0516765
Heightened Def Con from 0.0516765 to 0.0516765
Heightened Def Con from 0.0516765 to 0.0516765
Heightened Def Con from 0.0516765 to 0.0516765
Heightened Def Con from 0.0516765 to 0.0516765
Heightened Def Con from 0.0516765 to 0.0516765
Heightened Def Con from 0.0516765 to 0.0516765
Heightened Def Con from 0.0516765 to 0.0516765
Heightened Def Con from 0.0516766 to 0.0516766
Heightened Def Con from 0.0516766 to 0.0516766
Heightened Def Con from 0.0516766 to 0.0516766
Heightened Def Con from 0.0516766 to 0.0516766
Heightened Def Con from 0.0516766 to 0.0516766
Heightened Def Con from 0.0516766 to 0.0516767
Heightened Def Con from 0.0516767 to 0.0516767
Heightened Def Con from 0.0516767 to 0.0516767
Heightened Def Con from 0.0516767 to 0.0516767
Heightened Def Con from 0.0516767 to 0.0516767
Heightened Def Con from 0.0516767 to 0.0516767
Heightened Def Con from 0.0516767 to 0.0516767
Heightened Def Con from 0.0516767 to 0.0516767
Heightened Def Con from 0.0516767 to 0.0516767
Heightened Def Con from 0.0516767 to 0.0516767
Heightened Def Con from 0.0516767 to 0.0516767
Heightened Def Con from 0.0516767 to 0.0516767
Heightened Def Con from 0.0516767 to 0.0516767
Heightened Def Con from 0.0516779 to 0.0516779
Heightened Def Con from 0.0516779 to 0.0516779
Heightened Def Con from 0.0516779 to 0.0516779
Heightened Def Con from 0.0516779 to 0.0516779
Heightened Def Con from 0.0516779 to 0.0516779
Heightened Def Con from 0.0516779 to 0.0516779
Heightened Def Con from 0.0516779 to 0.0516779
Heightened Def Con from 0.0516779 to 0.0516779
Heightened Def Con from 0.0516779 to 0.0516779
Heightened Def Con from 0.0516779 to 0.0516779
Heightened Def Con from 0.0516779 to 0.0516779
Heightened Def Con from 0.0516779 to 0.0516779
Heightened Def Con from 0.0516779 to 0.0516779
Heightened Def Con from 0.0516779 to 0.0516779
Heightened Def Con from 0.0516779 to 0.0516779
Heightened Def Con from 0.0516779 to 0.0516779
Heightened Def Con from 0.0516779 to 0.0516779
Heightened Def Con from 0.0516779 to 0.0516779
Heightened Def Con from 0.0516779 to 0.0516779
Heightened Def Con from 0.0516779 to 0.0516779
Heightened Def Con from 0.0516779 to 0.0516779
Heightened Def Con from 0.0516779 to 0.0516779
Heightened Def Con from 0.0516779 to 0.0516779
Heightened Def Con from 0.0516779 to 0.0516779
Heightened Def Con from 0.0516779 to 0.0516779
Heightened Def Con from 0.0516779 to 0.0516779
Heightened Def Con from 0.0516779 to 0.0516779
Heightened Def Con from 0.0516779 to 0.0516779
Heightened Def Con from 0.0516779 to 0.0516779
Heightened Def Con from 0.0516779 to 0.0516779
Heightened Def Con from 0.0516779 to 0.051678
Heightened Def Con from 0.051678 to 0.051678
Heightened Def Con from 0.051678 to 0.051678
Heightened Def Con from 0.051678 to 0.051678
Heightened Def Con from 0.051678 to 0.051678
Heightened Def Con from 0.051678 to 0.051678
Heightened Def Con from 0.051678 to 0.051678
Heightened Def Con from 0.051678 to 0.051678
Heightened Def Con from 0.051678 to 0.051678
Heightened Def Con from 0.051678 to 0.051678
Heightened Def Con from 0.051678 to 0.051678
Heightened Def Con from 0.051678 to 0.051678
Heightened Def Con from 0.051678 to 0.051678
Heightened Def Con from 0.0516781 to 0.0516781
Heightened Def Con from 0.0516781 to 0.0516781
Heightened Def Con from 0.0516781 to 0.0516781
Heightened Def Con from 0.0516782 to 0.0516782
Heightened Def Con from 0.0516782 to 0.0516782
Heightened Def Con from 0.0516782 to 0.0516782
Heightened Def Con from 0.0516782 to 0.0516782
Heightened Def Con from 0.0516782 to 0.0516782
Heightened Def Con from 0.0516782 to 0.0516782
Heightened Def Con from 0.0516782 to 0.0516782
Heightened Def Con from 0.0516782 to 0.0516782
Heightened Def Con from 0.0516782 to 0.0516782
Heightened Def Con from 0.0516782 to 0.0516782
Heightened Def Con from 0.0516782 to 0.0516782
Heightened Def Con from 0.0516782 to 0.0516782
Heightened Def Con from 0.0516782 to 0.0516782
Heightened Def Con from 0.0516782 to 0.0516782
Heightened Def Con from 0.0516782 to 0.0516782
Heightened Def Con from 0.0516782 to 0.0516782
Heightened Def Con from 0.0516782 to 0.0516782
Heightened Def Con from 0.0516782 to 0.0516782
Heightened Def Con from 0.0516782 to 0.0516782
Heightened Def Con from 0.0516782 to 0.0516782
Heightened Def Con from 0.0516782 to 0.0516782
Heightened Def Con from 0.0516783 to 0.0516783
Heightened Def Con from 0.0516783 to 0.0516783
Heightened Def Con from 0.0516783 to 0.0516783
Heightened Def Con from 0.0516783 to 0.0516783
Heightened Def Con from 0.0516783 to 0.0516783
Heightened Def Con from 0.0516783 to 0.0516783
Heightened Def Con from 0.0516783 to 0.0516783
Heightened Def Con from 0.0516783 to 0.0516783
Heightened Def Con from 0.0516783 to 0.0516783
Heightened Def Con from 0.0516783 to 0.0516783
Heightened Def Con from 0.0516783 to 0.0516783
Heightened Def Con from 0.0516783 to 0.0516783
Heightened Def Con from 0.0516783 to 0.0516783
Heightened Def Con from 0.0516783 to 0.0516783
Heightened Def Con from 0.0516783 to 0.0516783
Heightened Def Con from 0.0516783 to 0.0516783
Heightened Def Con from 0.0516783 to 0.0516783
Heightened Def Con from 0.0516783 to 0.0516783
Heightened Def Con from 0.0516784 to 0.0516784
Heightened Def Con from 0.0516784 to 0.0516784
Heightened Def Con from 0.0516784 to 0.0516784
Heightened Def Con from 0.0516784 to 0.0516784
Heightened Def Con from 0.0516784 to 0.0516784
Heightened Def Con from 0.0516784 to 0.0516784
Heightened Def Con from 0.0516784 to 0.0516784
Heightened Def Con from 0.0516784 to 0.0516784
Heightened Def Con from 0.0516784 to 0.0516784
Heightened Def Con from 0.0516784 to 0.0516784
Heightened Def Con from 0.0516784 to 0.0516784
Heightened Def Con from 0.0516784 to 0.0516784
Heightened Def Con from 0.0516784 to 0.0516784
Heightened Def Con from 0.0516784 to 0.0516784
Heightened Def Con from 0.0516784 to 0.0516784
Heightened Def Con from 0.0516784 to 0.0516784
Heightened Def Con from 0.0516784 to 0.0516784
Heightened Def Con from 0.0516784 to 0.0516784
Heightened Def Con from 0.0516784 to 0.0516784
Heightened Def Con from 0.0516784 to 0.0516784
Heightened Def Con from 0.0516784 to 0.0516784
Heightened Def Con from 0.0516784 to 0.0516784
Heightened Def Con from 0.0516784 to 0.0516784
Heightened Def Con from 0.0516784 to 0.0516784
Heightened Def Con from 0.0516785 to 0.0516785
Heightened Def Con from 0.0516785 to 0.0516785
Heightened Def Con from 0.0516785 to 0.0516785
Heightened Def Con from 0.0516785 to 0.0516785
Heightened Def Con from 0.0516785 to 0.0516785
Heightened Def Con from 0.0516785 to 0.0516785
Heightened Def Con from 0.0516785 to 0.0516785
Heightened Def Con from 0.0516785 to 0.0516785
Heightened Def Con from 0.0516785 to 0.0516785
Heightened Def Con from 0.0516785 to 0.0516785
Heightened Def Con from 0.0516785 to 0.0516785
Heightened Def Con from 0.0516785 to 0.0516785
Heightened Def Con from 0.0516785 to 0.0516785
Heightened Def Con from 0.0516785 to 0.0516785
Heightened Def Con from 0.0516785 to 0.0516785
Heightened Def Con from 0.0516785 to 0.0516785
Heightened Def Con from 0.0516785 to 0.0516785
Heightened Def Con from 0.0516785 to 0.0516785
Heightened Def Con from 0.0516785 to 0.0516785
Heightened Def Con from 0.0516785 to 0.0516785
Heightened Def Con from 0.0516785 to 0.0516785
Heightened Def Con from 0.0516785 to 0.0516785
Heightened Def Con from 0.0516785 to 0.0516785
Heightened Def Con from 0.0516785 to 0.0516785
Heightened Def Con from 0.0516785 to 0.0516785
Heightened Def Con from 0.0516785 to 0.0516785
Heightened Def Con from 0.0516785 to 0.0516785
Heightened Def Con from 0.0516785 to 0.0516785
Heightened Def Con from 0.0516785 to 0.0516785
Heightened Def Con from 0.0516786 to 0.0516786
Heightened Def Con from 0.0516786 to 0.0516786
Heightened Def Con from 0.0516786 to 0.0516786
Heightened Def Con from 0.0516786 to 0.0516786
Heightened Def Con from 0.0516786 to 0.0516786
Heightened Def Con from 0.0516786 to 0.0516786
Heightened Def Con from 0.0516786 to 0.0516786
Heightened Def Con from 0.0516786 to 0.0516786
Heightened Def Con from 0.0516786 to 0.0516786
Heightened Def Con from 0.0516786 to 0.0516786
Heightened Def Con from 0.0516786 to 0.0516786
Heightened Def Con from 0.0516786 to 0.0516786
Heightened Def Con from 0.0516786 to 0.0516786
Heightened Def Con from 0.0516786 to 0.0516786
Heightened Def Con from 0.0516786 to 0.0516786
Heightened Def Con from 0.0516786 to 0.0516786
Heightened Def Con from 0.0516786 to 0.0516786
Heightened Def Con from 0.0516786 to 0.0516786
Heightened Def Con from 0.0516786 to 0.0516786
Heightened Def Con from 0.0516786 to 0.0516786
Heightened Def Con from 0.0516786 to 0.0516786
Heightened Def Con from 0.0516786 to 0.0516786
Heightened Def Con from 0.0516786 to 0.0516786
Heightened Def Con from 0.0516786 to 0.0516786
Heightened Def Con from 0.0516786 to 0.0516786
Heightened Def Con from 0.0516786 to 0.0516786
Heightened Def Con from 0.0516786 to 0.0516786
Heightened Def Con from 0.0516786 to 0.0516786
Heightened Def Con from 0.0516786 to 0.0516786
Heightened Def Con from 0.0516786 to 0.0516786
Heightened Def Con from 0.0516786 to 0.0516786
Heightened Def Con from 0.0516786 to 0.0516786
Heightened Def Con from 0.0516786 to 0.0516786
Heightened Def Con from 0.0516786 to 0.0516786
Heightened Def Con from 0.0516786 to 0.0516786
Heightened Def Con from 0.0516786 to 0.0516786
Heightened Def Con from 0.0516786 to 0.0516786
Heightened Def Con from 0.0516786 to 0.0516786
Heightened Def Con from 0.0516786 to 0.0516786
Heightened Def Con from 0.0516786 to 0.0516786
Heightened Def Con from 0.0516787 to 0.0516787
Heightened Def Con from 0.0516787 to 0.0516787
Heightened Def Con from 0.0516787 to 0.0516787
Heightened Def Con from 0.0516787 to 0.0516787
Heightened Def Con from 0.0516787 to 0.0516787
Heightened Def Con from 0.0516787 to 0.0516787
Heightened Def Con from 0.0516787 to 0.0516787
Heightened Def Con from 0.0516787 to 0.0516787
Heightened Def Con from 0.0516787 to 0.0516787
Heightened Def Con from 0.0516787 to 0.0516787
Heightened Def Con from 0.0516787 to 0.0516787
Heightened Def Con from 0.0516787 to 0.0516787
Heightened Def Con from 0.0516787 to 0.0516787
Heightened Def Con from 0.0516787 to 0.0516787
Heightened Def Con from 0.0516787 to 0.0516787
Heightened Def Con from 0.0516787 to 0.0516787
Heightened Def Con from 0.0516787 to 0.0516787
Heightened Def Con from 0.0516787 to 0.0516787
Heightened Def Con from 0.0516787 to 0.0516787
Heightened Def Con from 0.0516788 to 0.0516788
Heightened Def Con from 0.0516788 to 0.0516788
Heightened Def Con from 0.0516788 to 0.0516788
Heightened Def Con from 0.0516788 to 0.0516788
Heightened Def Con from 0.0516788 to 0.0516788
Heightened Def Con from 0.0516788 to 0.0516788
Heightened Def Con from 0.0516788 to 0.0516788
Heightened Def Con from 0.0516788 to 0.0516788
Heightened Def Con from 0.0516788 to 0.0516788
Heightened Def Con from 0.0516788 to 0.0516788
Heightened Def Con from 0.0516788 to 0.0516788
Heightened Def Con from 0.0516788 to 0.0516788
Heightened Def Con from 0.0516788 to 0.0516788
Heightened Def Con from 0.0516788 to 0.0516788
Heightened Def Con from 0.0516788 to 0.0516788
Heightened Def Con from 0.0516788 to 0.0516788
Heightened Def Con from 0.0516788 to 0.0516788
Heightened Def Con from 0.0516788 to 0.0516788
Heightened Def Con from 0.0516788 to 0.0516788
Heightened Def Con from 0.0516788 to 0.0516788
Heightened Def Con from 0.0516788 to 0.0516788
Heightened Def Con from 0.0516788 to 0.0516788
Heightened Def Con from 0.0516788 to 0.0516788
Heightened Def Con from 0.0516788 to 0.0516788
Heightened Def Con from 0.0516788 to 0.0516788
Heightened Def Con from 0.0516788 to 0.0516788
Heightened Def Con from 0.0516788 to 0.0516788
Heightened Def Con from 0.0516788 to 0.0516788
Heightened Def Con from 0.0516788 to 0.0516788
Heightened Def Con from 0.0516788 to 0.0516788
Heightened Def Con from 0.0516788 to 0.0516788
Heightened Def Con from 0.0516788 to 0.0516788
Heightened Def Con from 0.0516788 to 0.0516788
Heightened Def Con from 0.0516788 to 0.0516788
Heightened Def Con from 0.0516788 to 0.0516788
[...]
Heightened Def Con from 0.0518209 to 0.0518209
Heightened Def Con from 0.0518209 to 0.0518209
Heightened Def Con from 0.0518209 to 0.0518209
Heightened Def Con from 0.0518209 to 0.0518209
Heightened Def Con from 0.0518209 to 0.0518209
Heightened Def Con from 0.0518209 to 0.0518209
Heightened Def Con from 0.0518209 to 0.0518209
Heightened Def Con from 0.0518209 to 0.0518209
Heightened Def Con from 0.0518209 to 0.0518209
Heightened Def Con from 0.0518209 to 0.0518209
Heightened Def Con from 0.0518209 to 0.0518209
Heightened Def Con from 0.0518209 to 0.0518209
Heightened Def Con from 0.0518209 to 0.0518209
Heightened Def Con from 0.0518209 to 0.0518209
Heightened Def Con from 0.0518209 to 0.0518209
Heightened Def Con from 0.0518209 to 0.0518209
Heightened Def Con from 0.0518209 to 0.0518209
Heightened Def Con from 0.0518209 to 0.0518209
Heightened Def Con from 0.0518209 to 0.0518209
Heightened Def Con from 0.0518209 to 0.0518209
Heightened Def Con from 0.0518209 to 0.0518209
Heightened Def Con from 0.0518209 to 0.0518209
Heightened Def Con from 0.0518209 to 0.0518209
Heightened Def Con from 0.0518209 to 0.0518209
Heightened Def Con from 0.0518209 to 0.0518209
Heightened Def Con from 0.0518209 to 0.0518209
Heightened Def Con from 0.0518209 to 0.0518209
Heightened Def Con from 0.0518209 to 0.0518209
Heightened Def Con from 0.051821 to 0.051821
Heightened Def Con from 0.051821 to 0.051821
Heightened Def Con from 0.051821 to 0.051821
Heightened Def Con from 0.051821 to 0.051821
Heightened Def Con from 0.051821 to 0.051821
Heightened Def Con from 0.051821 to 0.051821
Heightened Def Con from 0.051821 to 0.051821
Heightened Def Con from 0.051821 to 0.051821
Heightened Def Con from 0.051821 to 0.051821
Heightened Def Con from 0.051821 to 0.051821
Heightened Def Con from 0.051821 to 0.051821
Heightened Def Con from 0.051821 to 0.051821
Heightened Def Con from 0.051821 to 0.051821
Heightened Def Con from 0.051821 to 0.051821
Heightened Def Con from 0.051821 to 0.051821
Heightened Def Con from 0.051821 to 0.051821
Heightened Def Con from 0.051821 to 0.051821
Heightened Def Con from 0.051821 to 0.051821
Heightened Def Con from 0.051821 to 0.051821
Heightened Def Con from 0.051821 to 0.051821
Heightened Def Con from 0.0518213 to 0.0518213
Heightened Def Con from 0.0518213 to 0.0518213
Heightened Def Con from 0.0518213 to 0.0518213
Heightened Def Con from 0.0518213 to 0.0518213
Heightened Def Con from 0.0518213 to 0.0518213
Heightened Def Con from 0.0518213 to 0.0518213
Heightened Def Con from 0.0518213 to 0.0518213
Heightened Def Con from 0.0518213 to 0.0518213
Heightened Def Con from 0.0518213 to 0.0518213
Heightened Def Con from 0.0518213 to 0.0518213
Heightened Def Con from 0.0518213 to 0.0518213
Heightened Def Con from 0.0518213 to 0.0518213
Heightened Def Con from 0.0518213 to 0.0518213
Heightened Def Con from 0.0518213 to 0.0518213
Heightened Def Con from 0.0518213 to 0.0518213
Heightened Def Con from 0.0518213 to 0.0518213
Heightened Def Con from 0.0518213 to 0.0518213
Heightened Def Con from 0.0518213 to 0.0518213
Heightened Def Con from 0.0518214 to 0.0518214
Heightened Def Con from 0.0518214 to 0.0518214
Heightened Def Con from 0.0518214 to 0.0518214
Heightened Def Con from 0.0518214 to 0.0518214
Heightened Def Con from 0.0518214 to 0.0518214
Heightened Def Con from 0.0518214 to 0.0518214
Heightened Def Con from 0.0518214 to 0.0518214
Heightened Def Con from 0.0518214 to 0.0518214
Heightened Def Con from 0.0518214 to 0.0518214
Heightened Def Con from 0.0518214 to 0.0518214
Heightened Def Con from 0.0518214 to 0.0518214
Heightened Def Con from 0.0518214 to 0.0518214
Heightened Def Con from 0.0518214 to 0.0518214
Heightened Def Con from 0.0518214 to 0.0518214
Heightened Def Con from 0.0518214 to 0.0518214
Heightened Def Con from 0.0518214 to 0.0518214
Heightened Def Con from 0.0518214 to 0.0518214
Heightened Def Con from 0.0518214 to 0.0518214
Heightened Def Con from 0.0518214 to 0.0518214
Heightened Def Con from 0.0518214 to 0.0518214
Heightened Def Con from 0.0518214 to 0.0518214
Heightened Def Con from 0.0518214 to 0.0518214
Heightened Def Con from 0.0518214 to 0.0518214
Heightened Def Con from 0.0518214 to 0.0518214
Heightened Def Con from 0.0518214 to 0.0518214
Heightened Def Con from 0.0518214 to 0.0518214
Heightened Def Con from 0.0518214 to 0.0518214
Heightened Def Con from 0.0518214 to 0.0518214
Heightened Def Con from 0.0518214 to 0.0518214
Heightened Def Con from 0.0518214 to 0.0518214
Heightened Def Con from 0.0518214 to 0.0518214
Heightened Def Con from 0.0518214 to 0.0518214
Heightened Def Con from 0.0518214 to 0.0518214
Heightened Def Con from 0.0518214 to 0.0518214
Heightened Def Con from 0.0518214 to 0.0518214
Heightened Def Con from 0.0518214 to 0.0518214
Heightened Def Con from 0.0518214 to 0.0518214
Heightened Def Con from 0.0518214 to 0.0518214
Heightened Def Con from 0.0518215 to 0.0518215
Heightened Def Con from 0.0518215 to 0.0518215
Heightened Def Con from 0.0518215 to 0.0518215
Heightened Def Con from 0.0518215 to 0.0518215
Heightened Def Con from 0.0518215 to 0.0518215
Heightened Def Con from 0.0518215 to 0.0518215
Heightened Def Con from 0.0518215 to 0.0518215
Heightened Def Con from 0.0518215 to 0.0518215
Heightened Def Con from 0.0518215 to 0.0518215
Heightened Def Con from 0.0518215 to 0.0518215
Heightened Def Con from 0.0518215 to 0.0518215
Heightened Def Con from 0.0518215 to 0.0518215
Heightened Def Con from 0.0518215 to 0.0518215
Heightened Def Con from 0.0518215 to 0.0518215
Heightened Def Con from 0.0518215 to 0.0518215
Heightened Def Con from 0.0518215 to 0.0518215
Heightened Def Con from 0.0518215 to 0.0518215
Heightened Def Con from 0.0518215 to 0.0518215
Heightened Def Con from 0.0518215 to 0.0518215
Heightened Def Con from 0.0518215 to 0.0518215
Heightened Def Con from 0.0518215 to 0.0518215
Heightened Def Con from 0.0518215 to 0.0518215
Heightened Def Con from 0.0518215 to 0.0518215
Heightened Def Con from 0.0518215 to 0.0518215
Heightened Def Con from 0.0518215 to 0.0518215
Heightened Def Con from 0.0518215 to 0.0518215
Heightened Def Con from 0.0518215 to 0.0518215
Heightened Def Con from 0.0518215 to 0.0518215
Heightened Def Con from 0.0518215 to 0.0518215
Heightened Def Con from 0.0518215 to 0.0518215
Heightened Def Con from 0.0518215 to 0.0518215
Heightened Def Con from 0.0518215 to 0.0518215
Heightened Def Con from 0.0518215 to 0.0518215
Heightened Def Con from 0.0518215 to 0.0518215
Heightened Def Con from 0.0518215 to 0.0518215
Heightened Def Con from 0.0518215 to 0.0518215
Heightened Def Con from 0.0518215 to 0.0518215
Heightened Def Con from 0.0518215 to 0.0518215
Heightened Def Con from 0.0518215 to 0.0518215
Heightened Def Con from 0.0518215 to 0.0518215
Heightened Def Con from 0.0518215 to 0.0518215
Heightened Def Con from 0.0518215 to 0.0518215
Heightened Def Con from 0.0518215 to 0.0518215
Heightened Def Con from 0.0518215 to 0.0518215
Heightened Def Con from 0.0518215 to 0.0518215
Heightened Def Con from 0.0518216 to 0.0518216
Heightened Def Con from 0.0518216 to 0.0518216
Heightened Def Con from 0.0518216 to 0.0518216
Heightened Def Con from 0.0518216 to 0.0518216
Heightened Def Con from 0.0518216 to 0.0518216
Heightened Def Con from 0.0518216 to 0.0518216
Heightened Def Con from 0.0518216 to 0.0518216
Heightened Def Con from 0.0518216 to 0.0518216
Heightened Def Con from 0.0518216 to 0.0518216
Heightened Def Con from 0.0518216 to 0.0518216
Heightened Def Con from 0.0518216 to 0.0518216
Heightened Def Con from 0.0518216 to 0.0518216
Heightened Def Con from 0.0518216 to 0.0518216
Heightened Def Con from 0.0518216 to 0.0518216
Heightened Def Con from 0.0518216 to 0.0518216
Heightened Def Con from 0.0518216 to 0.0518216
Heightened Def Con from 0.0518217 to 0.0518217
Heightened Def Con from 0.0518217 to 0.0518217
Heightened Def Con from 0.0518217 to 0.0518217
Heightened Def Con from 0.0518217 to 0.0518217
Heightened Def Con from 0.0518217 to 0.0518217
Heightened Def Con from 0.0518217 to 0.0518217
Heightened Def Con from 0.0518217 to 0.0518217
Heightened Def Con from 0.0518217 to 0.0518217
Heightened Def Con from 0.0518217 to 0.0518217
Heightened Def Con from 0.0518217 to 0.0518217
Heightened Def Con from 0.0518217 to 0.0518217
Heightened Def Con from 0.0518217 to 0.0518217
Heightened Def Con from 0.0518217 to 0.0518217
Heightened Def Con from 0.0518217 to 0.0518217
Heightened Def Con from 0.0518217 to 0.0518217
Heightened Def Con from 0.0518217 to 0.0518217
Heightened Def Con from 0.0518218 to 0.0518218
Heightened Def Con from 0.0518218 to 0.0518218
Heightened Def Con from 0.0518218 to 0.0518218
Heightened Def Con from 0.0518218 to 0.0518218
Heightened Def Con from 0.0518218 to 0.0518218
Heightened Def Con from 0.0518218 to 0.0518218
Heightened Def Con from 0.0518218 to 0.0518218
Heightened Def Con from 0.0518218 to 0.0518218
Heightened Def Con from 0.0518218 to 0.0518218
Heightened Def Con from 0.0518218 to 0.0518218
Heightened Def Con from 0.0518218 to 0.0518218
Heightened Def Con from 0.0518218 to 0.0518218
Heightened Def Con from 0.0518218 to 0.0518218
Heightened Def Con from 0.0518218 to 0.0518218
Heightened Def Con from 0.0518218 to 0.0518218
Heightened Def Con from 0.0518218 to 0.0518218
Heightened Def Con from 0.0518218 to 0.0518218
Heightened Def Con from 0.0518218 to 0.0518218
Heightened Def Con from 0.0518218 to 0.0518218
Heightened Def Con from 0.0518218 to 0.0518218
Heightened Def Con from 0.0518218 to 0.0518218
Heightened Def Con from 0.0518218 to 0.0518218
Heightened Def Con from 0.0518218 to 0.0518218
Heightened Def Con from 0.0518218 to 0.0518218
Heightened Def Con from 0.0518218 to 0.0518218
Heightened Def Con from 0.0518218 to 0.0518218
Heightened Def Con from 0.0518218 to 0.0518218
Heightened Def Con from 0.0518218 to 0.0518218
Heightened Def Con from 0.0518218 to 0.0518218
Heightened Def Con from 0.0518218 to 0.0518218
Heightened Def Con from 0.0518218 to 0.0518218
Heightened Def Con from 0.0518218 to 0.0518218
Heightened Def Con from 0.0518218 to 0.0518218
Heightened Def Con from 0.0518218 to 0.0518218
Heightened Def Con from 0.0518218 to 0.0518218
Heightened Def Con from 0.0518218 to 0.0518218
Heightened Def Con from 0.0518218 to 0.0518218
Heightened Def Con from 0.0518218 to 0.0518218
Heightened Def Con from 0.0518218 to 0.0518218
Heightened Def Con from 0.0518218 to 0.0518218
Heightened Def Con from 0.0518218 to 0.0518218
Heightened Def Con from 0.0518218 to 0.0518218
Heightened Def Con from 0.0518218 to 0.0518218
Heightened Def Con from 0.0518218 to 0.0518218
Heightened Def Con from 0.0518218 to 0.0518218
Heightened Def Con from 0.0518218 to 0.0518218
Heightened Def Con from 0.0518219 to 0.0518219
Heightened Def Con from 0.0518219 to 0.0518219
Heightened Def Con from 0.0518219 to 0.0518219
Heightened Def Con from 0.0518219 to 0.0518219
Heightened Def Con from 0.0518219 to 0.0518219
Heightened Def Con from 0.0518219 to 0.0518219
Heightened Def Con from 0.0518219 to 0.0518219
Heightened Def Con from 0.0518219 to 0.0518219
Heightened Def Con from 0.0518219 to 0.0518219
Heightened Def Con from 0.0518219 to 0.0518219
Heightened Def Con from 0.0518219 to 0.0518219
Heightened Def Con from 0.0518219 to 0.0518219
Heightened Def Con from 0.0518219 to 0.0518219
Heightened Def Con from 0.0518219 to 0.0518219
Heightened Def Con from 0.0518219 to 0.0518219
Heightened Def Con from 0.0518219 to 0.0518219
Heightened Def Con from 0.0518219 to 0.0518219
Heightened Def Con from 0.0518219 to 0.0518219
Heightened Def Con from 0.0518219 to 0.0518219
Heightened Def Con from 0.0518221 to 0.0518221
Heightened Def Con from 0.0518221 to 0.0518221
Heightened Def Con from 0.0518221 to 0.0518221
Heightened Def Con from 0.0518221 to 0.0518221
Heightened Def Con from 0.0518221 to 0.0518221
Heightened Def Con from 0.0518221 to 0.0518221
Heightened Def Con from 0.0518221 to 0.0518221
Heightened Def Con from 0.0518221 to 0.0518221
Heightened Def Con from 0.0518221 to 0.0518221
Heightened Def Con from 0.0518221 to 0.0518221
Heightened Def Con from 0.0518221 to 0.0518221
Heightened Def Con from 0.0518221 to 0.0518221
Heightened Def Con from 0.0518221 to 0.0518221
Heightened Def Con from 0.0518221 to 0.0518221
Heightened Def Con from 0.0518221 to 0.0518221
Heightened Def Con from 0.0518221 to 0.0518221
Heightened Def Con from 0.0518221 to 0.0518221
Heightened Def Con from 0.0518221 to 0.0518221
Heightened Def Con from 0.0518221 to 0.0518221
Heightened Def Con from 0.0518221 to 0.0518221
Heightened Def Con from 0.0518221 to 0.0518221
Heightened Def Con from 0.0518221 to 0.0518221
Heightened Def Con from 0.0518221 to 0.0518221
Heightened Def Con from 0.0518221 to 0.0518221
Heightened Def Con from 0.0518221 to 0.0518221
Heightened Def Con from 0.0518221 to 0.0518221
Heightened Def Con from 0.0518223 to 0.0518223
Heightened Def Con from 0.0518223 to 0.0518223
Heightened Def Con from 0.0518223 to 0.0518223
Heightened Def Con from 0.0518223 to 0.0518223
Heightened Def Con from 0.0518223 to 0.0518223
Heightened Def Con from 0.0518223 to 0.0518223
Heightened Def Con from 0.0518224 to 0.0518224
Heightened Def Con from 0.0518224 to 0.0518224
Heightened Def Con from 0.0518224 to 0.0518224
Heightened Def Con from 0.0518224 to 0.0518224
Heightened Def Con from 0.0518224 to 0.0518224
Heightened Def Con from 0.0518224 to 0.0518224
Heightened Def Con from 0.0518224 to 0.0518224
Heightened Def Con from 0.0518224 to 0.0518224
Heightened Def Con from 0.0518224 to 0.0518224
Heightened Def Con from 0.0518224 to 0.0518225
Heightened Def Con from 0.0518225 to 0.0518225
Heightened Def Con from 0.0518225 to 0.0518225
Heightened Def Con from 0.0518225 to 0.0518225
Heightened Def Con from 0.0518225 to 0.0518225
Heightened Def Con from 0.0518225 to 0.0518225
Heightened Def Con from 0.0518225 to 0.0518225
Heightened Def Con from 0.0518225 to 0.0518225
Heightened Def Con from 0.0518225 to 0.0518225
Heightened Def Con from 0.0518225 to 0.0518225
Heightened Def Con from 0.0518225 to 0.0518225
Heightened Def Con from 0.0518225 to 0.0518225
Heightened Def Con from 0.0518225 to 0.0518225
Heightened Def Con from 0.0518225 to 0.0518225
Heightened Def Con from 0.0518225 to 0.0518225
Heightened Def Con from 0.0518225 to 0.0518225
Heightened Def Con from 0.0518225 to 0.0518225
Heightened Def Con from 0.0518225 to 0.0518225
Heightened Def Con from 0.0518225 to 0.0518225
Heightened Def Con from 0.0518225 to 0.0518225
Heightened Def Con from 0.0518225 to 0.0518225
Heightened Def Con from 0.0518225 to 0.0518225
Heightened Def Con from 0.0518225 to 0.0518225
Heightened Def Con from 0.0518225 to 0.0518225
Heightened Def Con from 0.0518225 to 0.0518225
Heightened Def Con from 0.0518225 to 0.0518225
Heightened Def Con from 0.0518225 to 0.0518225
Heightened Def Con from 0.0518225 to 0.0518225
Heightened Def Con from 0.0518225 to 0.0518225
Heightened Def Con from 0.0518225 to 0.0518225
Heightened Def Con from 0.0518225 to 0.0518225
Heightened Def Con from 0.0518225 to 0.0518225
Heightened Def Con from 0.0518225 to 0.0518225
Heightened Def Con from 0.0518225 to 0.0518225
Heightened Def Con from 0.0518225 to 0.0518225
Heightened Def Con from 0.0518225 to 0.0518225
Heightened Def Con from 0.0518225 to 0.0518225
Heightened Def Con from 0.0518225 to 0.0518225
Heightened Def Con from 0.0518225 to 0.0518225
Heightened Def Con from 0.0518225 to 0.0518225
Heightened Def Con from 0.0518225 to 0.0518225
Heightened Def Con from 0.0518225 to 0.0518225
Heightened Def Con from 0.0518226 to 0.0518226
Heightened Def Con from 0.0518226 to 0.0518226
Heightened Def Con from 0.0518226 to 0.0518226
Heightened Def Con from 0.0518226 to 0.0518226
Heightened Def Con from 0.0518226 to 0.0518226
Heightened Def Con from 0.0518226 to 0.0518226
Heightened Def Con from 0.0518226 to 0.0518226
Heightened Def Con from 0.0518226 to 0.0518226
Heightened Def Con from 0.0518226 to 0.0518226
Heightened Def Con from 0.0518226 to 0.0518226
Heightened Def Con from 0.0518226 to 0.0518226
Heightened Def Con from 0.0518226 to 0.0518226
Heightened Def Con from 0.0518226 to 0.0518226
Heightened Def Con from 0.0518226 to 0.0518226
Heightened Def Con from 0.0518226 to 0.0518226
Heightened Def Con from 0.0518226 to 0.0518226
Heightened Def Con from 0.0518226 to 0.0518226
Heightened Def Con from 0.0518226 to 0.0518226
Heightened Def Con from 0.0518226 to 0.0518226
Heightened Def Con from 0.0518226 to 0.0518226
Heightened Def Con from 0.0518226 to 0.0518226
Heightened Def Con from 0.0518228 to 0.0518228
Heightened Def Con from 0.0518228 to 0.0518228
Heightened Def Con from 0.0518228 to 0.0518228
Heightened Def Con from 0.0518228 to 0.0518228
Heightened Def Con from 0.0518228 to 0.0518228
Heightened Def Con from 0.0518228 to 0.0518228
Heightened Def Con from 0.0518228 to 0.0518228
Heightened Def Con from 0.0518228 to 0.0518228
Heightened Def Con from 0.0518228 to 0.0518228
Heightened Def Con from 0.0518228 to 0.0518228
Heightened Def Con from 0.0518228 to 0.0518228
Heightened Def Con from 0.0518228 to 0.0518228
Heightened Def Con from 0.0518228 to 0.0518228
Heightened Def Con from 0.0518228 to 0.0518228
Heightened Def Con from 0.0518228 to 0.0518228
Heightened Def Con from 0.0518228 to 0.0518228
Heightened Def Con from 0.0518229 to 0.0518229
Heightened Def Con from 0.0518229 to 0.0518229
Heightened Def Con from 0.0518229 to 0.0518229
Heightened Def Con from 0.0518229 to 0.0518229
Heightened Def Con from 0.0518229 to 0.0518229
Heightened Def Con from 0.0518229 to 0.0518229
Heightened Def Con from 0.0518229 to 0.0518229
Heightened Def Con from 0.0518229 to 0.0518229
Heightened Def Con from 0.0518229 to 0.0518229
Heightened Def Con from 0.0518229 to 0.0518229
Heightened Def Con from 0.0518229 to 0.0518229
Heightened Def Con from 0.0518229 to 0.0518229
Heightened Def Con from 0.0518229 to 0.0518229
Heightened Def Con from 0.0518229 to 0.0518229
Heightened Def Con from 0.0518229 to 0.0518229
Heightened Def Con from 0.0518229 to 0.0518229
Heightened Def Con from 0.0518229 to 0.0518229
Heightened Def Con from 0.0518229 to 0.0518229
Heightened Def Con from 0.0518229 to 0.0518229
Heightened Def Con from 0.0518229 to 0.0518229
Heightened Def Con from 0.0518229 to 0.0518229
Heightened Def Con from 0.0518229 to 0.0518229
Heightened Def Con from 0.0518231 to 0.0518231
Heightened Def Con from 0.0518231 to 0.0518231
Heightened Def Con from 0.0518231 to 0.0518231
Heightened Def Con from 0.0518231 to 0.0518231
Heightened Def Con from 0.0518231 to 0.0518231
Heightened Def Con from 0.0518231 to 0.0518231
Heightened Def Con from 0.0518231 to 0.0518231
Heightened Def Con from 0.0518231 to 0.0518231
Heightened Def Con from 0.0518231 to 0.0518231
Heightened Def Con from 0.0518231 to 0.0518231
Heightened Def Con from 0.0518231 to 0.0518231
Heightened Def Con from 0.0518231 to 0.0518231
Heightened Def Con from 0.0518231 to 0.0518231
Heightened Def Con from 0.0518231 to 0.0518231
Heightened Def Con from 0.0518231 to 0.0518231
Heightened Def Con from 0.0518231 to 0.0518231
Heightened Def Con from 0.0518231 to 0.0518231
Heightened Def Con from 0.0518231 to 0.0518231
Heightened Def Con from 0.0518231 to 0.0518231
Heightened Def Con from 0.0518231 to 0.0518231
Heightened Def Con from 0.0518231 to 0.0518231
Heightened Def Con from 0.0518231 to 0.0518231
Heightened Def Con from 0.0518231 to 0.0518231
Heightened Def Con from 0.0518231 to 0.0518231
Heightened Def Con from 0.0518231 to 0.0518231
Heightened Def Con from 0.0518231 to 0.0518231
Heightened Def Con from 0.0518231 to 0.0518231
Heightened Def Con from 0.0518231 to 0.0518232
Heightened Def Con from 0.0518232 to 0.0518232
Heightened Def Con from 0.0518232 to 0.0518232

Date: Sun Oct 06 16:24:35 2024
Total elapsed time: 7.103 seconds.

tnom = 27
temp = 27
method = modified trap
totiter = 2773395
traniter = 2772711
tranpoints = 328171
accept = 169087
rejected = 171851
matrix size = 10
fillins = 7
solver = Normal
Matrix Compiler1: 1016 bytes object code size  0.4/0.3/[0.2]
Matrix Compiler2: 974 bytes object code size  0.3/0.3/[0.2]

