Circuit: * Z:\n\dev\challenges\LTSpice_circuits\Draft4.asc

Fatal Error: Unknown subcircuit called in:
   xu1 n001 n004 n005 triac
