Circuit: * Z:\n\dev\challenges\LTSpice_circuits\NPN NOT gate.asc

Warning: Multiple definitions of model "2scr375p" Type: BJT
Warning: Multiple definitions of model "bc857b" Type: BJT
Warning: Multiple definitions of model "bc847c" Type: BJT
Warning: Multiple definitions of model "bc847b" Type: BJT
Limiting rise time of source v2 to 0.01
Limiting fall time of source v2 to 0.01
Direct Newton iteration for .op point succeeded.

Date: Sat Oct 12 22:53:13 2024
Total elapsed time: 0.062 seconds.

tnom = 27
temp = 27
method = modified trap
totiter = 891
traniter = 881
tranpoints = 271
accept = 221
rejected = 50
matrix size = 7
fillins = 0
solver = Normal
Matrix Compiler1: 232 bytes object code size  0.1/0.6/[0.1]
Matrix Compiler2: off
