Circuit: * D:\Users\Daniel\Dropbox\Documents\Circuits\serial-amplifier.asc

C3: Increased Cpar to 2.7e-011
Direct Newton iteration for .op point succeeded.

Date: Sun Feb 27 00:44:58 2022
Total elapsed time: 0.043 seconds.

tnom = 27
temp = 27
method = modified trap
totiter = 2177
traniter = 2172
tranpoints = 1086
accept = 1056
rejected = 30
matrix size = 20
fillins = 5
solver = Normal
Matrix Compiler1: 1.61 KB object code size  0.3/0.2/[0.1]
Matrix Compiler2: 1.85 KB object code size  0.2/0.2/[0.2]

