Circuit: * D:\Daniel\Documents\Projects\challenges\LTSpice_circuits\serial-amplifier.asc

C2: Increased Cpar to 2.7e-011
C1: Increased Cpar to 2.7e-011
C5: Increased Cpar to 2.7e-011
C3: Increased Cpar to 2.7e-011
Direct Newton iteration for .op point succeeded.

Date: Fri Mar 11 18:09:38 2022
Total elapsed time: 0.153 seconds.

tnom = 27
temp = 27
method = modified trap
totiter = 2175
traniter = 2170
tranpoints = 1086
accept = 1056
rejected = 30
matrix size = 20
fillins = 4
solver = Normal
Matrix Compiler1: 1.56 KB object code size  0.3/0.2/[0.1]
Matrix Compiler2: 1.84 KB object code size  0.2/0.3/[0.1]

