Circuit: * D:\Daniel\Documents\Projects\challenges\LTSpice_circuits\step-down.asc

WARNING: Node N006 is floating.

Direct Newton iteration for .op point succeeded.

Date: Mon Mar 14 18:41:46 2022
Total elapsed time: 0.126 seconds.

tnom = 27
temp = 27
method = modified trap
totiter = 2129
traniter = 2124
tranpoints = 1042
accept = 1042
rejected = 0
matrix size = 12
fillins = 0
solver = Normal
Matrix Compiler1: 588 bytes object code size  0.1/0.1/[0.1]
Matrix Compiler2: 886 bytes object code size  0.1/0.1/[0.1]

