Circuit: * D:\Users\Daniel\Dropbox\Documents\Circuits\step-up.asc

WARNING: Node NC_01 is floating.

WARNING: Less than two connections to node NC_01.  This node is used by V2.
Direct Newton iteration for .op point succeeded.

Date: Sun Feb 06 01:05:46 2022
Total elapsed time: 0.105 seconds.

tnom = 27
temp = 27
method = modified trap
totiter = 2279
traniter = 2266
tranpoints = 1134
accept = 1110
rejected = 24
matrix size = 7
fillins = 3
solver = Normal
Matrix Compiler1: 304 bytes object code size  0.1/0.1/[0.1]
Matrix Compiler2: off  [0.1]/0.1/0.1

