Circuit: * D:\Users\Daniel\Dropbox\Documents\Circuits\step-down.asc

WARNING: Node N006 is floating.

Direct Newton iteration for .op point succeeded.

Date: Mon Feb 07 19:17:52 2022
Total elapsed time: 0.103 seconds.

tnom = 27
temp = 27
method = modified trap
totiter = 2279
traniter = 2272
tranpoints = 1105
accept = 1092
rejected = 13
matrix size = 12
fillins = 0
solver = Normal
Matrix Compiler1: 588 bytes object code size  0.1/0.1/[0.1]
Matrix Compiler2: 886 bytes object code size  0.1/0.1/[0.1]

