Circuit: * D:\Daniel\Documents\Projects\challenges\LTSpice_circuits\working-amplifier.asc

Direct Newton iteration for .op point succeeded.

Date: Fri Mar 11 18:03:38 2022
Total elapsed time: 0.092 seconds.

tnom = 27
temp = 27
method = modified trap
totiter = 2086
traniter = 2082
tranpoints = 1042
accept = 1042
rejected = 0
matrix size = 23
fillins = 0
solver = Normal
Matrix Compiler1: 1.58 KB object code size  0.4/0.3/[0.2]
Matrix Compiler2: 1.97 KB object code size  0.3/0.4/[0.2]

