LTspice 24.1.7 for Windows
Circuit: Z:\n\dev\challenges\LTSpice_circuits\working-amplifier.net
Start Time: Thu Jun  5 18:24:27 2025
solver = Normal
Maximum thread count: 8
tnom = 27
temp = 27
method = trap
Direct Newton iteration for .op point succeeded.
Total elapsed time: 0.272 seconds.

Files loaded:
Z:\n\dev\challenges\LTSpice_circuits\working-amplifier.net
C:\users\katzda\AppData\Local\LTspice\lib\cmp\standard.bjt

